

        *** GPGPU-Sim Simulator Version 3.2.2  [build 0] ***


GPGPU-Sim PTX: simulation mode 0 (can change with PTX_SIM_MODE_FUNC environment variable:
               1=functional simulation only, 0=detailed performance simulator)
GPGPU-Sim: Configuration options:

-network_mode                           1 # Interconnection network mode
-inter_config_file   config_fermi_islip.icnt # Interconnection network config file
-gpgpu_ptx_use_cuobjdump                    1 # Use cuobjdump to extract ptx and sass from binaries
-gpgpu_experimental_lib_support                    0 # Try to extract code from cuda libraries [Broken because of unknown cudaGetExportTable]
-gpgpu_ptx_convert_to_ptxplus                    0 # Convert SASS (native ISA) to ptxplus and run ptxplus
-gpgpu_ptx_force_max_capability                   20 # Force maximum compute capability
-gpgpu_ptx_inst_debug_to_file                    0 # Dump executed instructions' debug information to file
-gpgpu_ptx_inst_debug_file       inst_debug.txt # Executed instructions' debug output file
-gpgpu_ptx_inst_debug_thread_uid                    1 # Thread UID for executed instructions' debug output
-gpgpu_simd_model                       1 # 1 = post-dominator
-gpgpu_shader_core_pipeline              1536:32 # shader core pipeline config, i.e., {<nthread>:<warpsize>}
-gpgpu_tex_cache:l1  4:128:24,L:R:m:N:L,F:128:4,128:2 # per-shader L1 texture cache  (READ-ONLY) config  {<nsets>:<bsize>:<assoc>,<rep>:<wr>:<alloc>:<wr_alloc>,<mshr>:<N>:<merge>,<mq>:<rf>}
-gpgpu_const_cache:l1 64:64:2,L:R:f:N:L,A:2:32,4 # per-shader L1 constant memory cache  (READ-ONLY) config  {<nsets>:<bsize>:<assoc>,<rep>:<wr>:<alloc>:<wr_alloc>,<mshr>:<N>:<merge>,<mq>} 
-gpgpu_cache:il1     4:128:4,L:R:f:N:L,A:2:32,4 # shader L1 instruction cache config  {<nsets>:<bsize>:<assoc>,<rep>:<wr>:<alloc>:<wr_alloc>,<mshr>:<N>:<merge>,<mq>} 
-gpgpu_cache:dl1     32:128:4,L:L:m:N:H,A:32:8,8 # per-shader L1 data cache config  {<nsets>:<bsize>:<assoc>,<rep>:<wr>:<alloc>:<wr_alloc>,<mshr>:<N>:<merge>,<mq> | none}
-gpgpu_cache:dl1PrefL1                 none # per-shader L1 data cache config  {<nsets>:<bsize>:<assoc>,<rep>:<wr>:<alloc>:<wr_alloc>,<mshr>:<N>:<merge>,<mq> | none}
-gpgpu_cache:dl1PreShared                 none # per-shader L1 data cache config  {<nsets>:<bsize>:<assoc>,<rep>:<wr>:<alloc>:<wr_alloc>,<mshr>:<N>:<merge>,<mq> | none}
-gmem_skip_L1D                          0 # global memory access skip L1D cache (implements -Xptxas -dlcm=cg, default=no skip)
-gpgpu_perfect_mem                      0 # enable perfect memory mode (no cache miss)
-n_regfile_gating_group                    4 # group of lanes that should be read/written together)
-gpgpu_clock_gated_reg_file                    0 # enable clock gated reg file for power calculations
-gpgpu_clock_gated_lanes                    0 # enable clock gated lanes for power calculations
-gpgpu_shader_registers                32768 # Number of registers per shader core. Limits number of concurrent CTAs. (default 8192)
-gpgpu_shader_cta                       8 # Maximum number of concurrent CTAs in shader (default 8)
-gpgpu_num_cta_barriers                   16 # Maximum number of named barriers per CTA (default 16)
-gpgpu_n_clusters                      15 # number of processing clusters
-gpgpu_n_cores_per_cluster                    1 # number of simd cores per cluster
-gpgpu_n_cluster_ejection_buffer_size                    8 # number of packets in ejection buffer
-gpgpu_n_ldst_response_buffer_size                    2 # number of response packets in ld/st unit ejection buffer
-gpgpu_shmem_size                   16384 # Size of shared memory per shader core (default 16kB)
-gpgpu_shmem_size                   49152 # Size of shared memory per shader core (default 16kB)
-gpgpu_shmem_size_PrefL1                16384 # Size of shared memory per shader core (default 16kB)
-gpgpu_shmem_size_PrefShared                16384 # Size of shared memory per shader core (default 16kB)
-gpgpu_shmem_num_banks                   32 # Number of banks in the shared memory in each shader core (default 16)
-gpgpu_shmem_limited_broadcast                    0 # Limit shared memory to do one broadcast per cycle (default on)
-gpgpu_shmem_warp_parts                    1 # Number of portions a warp is divided into for shared memory bank conflict check 
-gpgpu_warpdistro_shader                   -1 # Specify which shader core to collect the warp size distribution from
-gpgpu_warp_issue_shader                    0 # Specify which shader core to collect the warp issue distribution from
-gpgpu_local_mem_map                    1 # Mapping from local memory space address to simulated GPU physical address space (default = enabled)
-gpgpu_num_reg_banks                   16 # Number of register banks (default = 8)
-gpgpu_reg_bank_use_warp_id                    0 # Use warp ID in mapping registers to banks (default = off)
-gpgpu_operand_collector_num_units_sp                    6 # number of collector units (default = 4)
-gpgpu_operand_collector_num_units_sfu                    8 # number of collector units (default = 4)
-gpgpu_operand_collector_num_units_mem                    2 # number of collector units (default = 2)
-gpgpu_operand_collector_num_units_gen                    0 # number of collector units (default = 0)
-gpgpu_operand_collector_num_in_ports_sp                    2 # number of collector unit in ports (default = 1)
-gpgpu_operand_collector_num_in_ports_sfu                    1 # number of collector unit in ports (default = 1)
-gpgpu_operand_collector_num_in_ports_mem                    1 # number of collector unit in ports (default = 1)
-gpgpu_operand_collector_num_in_ports_gen                    0 # number of collector unit in ports (default = 0)
-gpgpu_operand_collector_num_out_ports_sp                    2 # number of collector unit in ports (default = 1)
-gpgpu_operand_collector_num_out_ports_sfu                    1 # number of collector unit in ports (default = 1)
-gpgpu_operand_collector_num_out_ports_mem                    1 # number of collector unit in ports (default = 1)
-gpgpu_operand_collector_num_out_ports_gen                    0 # number of collector unit in ports (default = 0)
-gpgpu_coalesce_arch                   13 # Coalescing arch (default = 13, anything else is off for now)
-gpgpu_num_sched_per_core                    2 # Number of warp schedulers per core
-gpgpu_max_insn_issue_per_warp                    1 # Max number of instructions that can be issued per warp in one cycle by scheduler
-gpgpu_simt_core_sim_order                    1 # Select the simulation order of cores in a cluster (0=Fix, 1=Round-Robin)
-gpgpu_pipeline_widths        2,1,1,2,1,1,2 # Pipeline widths ID_OC_SP,ID_OC_SFU,ID_OC_MEM,OC_EX_SP,OC_EX_SFU,OC_EX_MEM,EX_WB
-gpgpu_num_sp_units                     2 # Number of SP units (default=1)
-gpgpu_num_sfu_units                    1 # Number of SF units (default=1)
-gpgpu_num_mem_units                    1 # Number if ldst units (default=1) WARNING: not hooked up to anything
-gpgpu_scheduler     two_level_active:6:0:1 # Scheduler configuration: < lrr | gto | two_level_active > If two_level_active:<num_active_warps>:<inner_prioritization>:<outer_prioritization>For complete list of prioritization values see shader.h enum scheduler_prioritization_typeDefault: gto
-gpgpu_dram_scheduler                    1 # 0 = fifo, 1 = FR-FCFS (defaul)
-gpgpu_dram_partition_queues              8:8:8:8 # i2$:$2d:d2$:$2i
-l2_ideal                               0 # Use a ideal L2 cache that always hit
-gpgpu_cache:dl2     64:128:8,L:B:m:W:L,A:32:4,4:0,32 # unified banked L2 data cache config  {<nsets>:<bsize>:<assoc>,<rep>:<wr>:<alloc>:<wr_alloc>,<mshr>:<N>:<merge>,<mq>}
-gpgpu_cache:dl2_texture_only                    0 # L2 cache used for texture only
-gpgpu_n_mem                            6 # number of memory modules (e.g. memory controllers) in gpu
-gpgpu_n_sub_partition_per_mchannel                    2 # number of memory subpartition in each memory module
-gpgpu_n_mem_per_ctrlr                    2 # number of memory chips per memory controller
-gpgpu_memlatency_stat                   14 # track and display latency statistics 0x2 enables MC, 0x4 enables queue logs
-gpgpu_frfcfs_dram_sched_queue_size                   16 # 0 = unlimited (default); # entries per chip
-gpgpu_dram_return_queue_size                  116 # 0 = unlimited (default); # entries per chip
-gpgpu_dram_buswidth                    4 # default = 4 bytes (8 bytes per cycle at DDR)
-gpgpu_dram_burst_length                    8 # Burst length of each DRAM request (default = 4 data bus cycle)
-dram_data_command_freq_ratio                    4 # Frequency ratio between DRAM data bus and command bus (default = 2 times, i.e. DDR)
-gpgpu_dram_timing_opt nbk=16:CCD=2:RRD=6:RCD=12:RAS=28:RP=12:RC=40: CL=12:WL=4:CDLR=5:WR=12:nbkgrp=4:CCDL=3:RTPL=2 # DRAM timing parameters = {nbk:tCCD:tRRD:tRCD:tRAS:tRP:tRC:CL:WL:tCDLR:tWR:nbkgrp:tCCDL:tRTPL}
-rop_latency                          120 # ROP queue latency (default 85)
-dram_latency                         100 # DRAM latency (default 30)
-gpgpu_mem_addr_mapping dramid@8;00000000.00000000.00000000.00000000.0000RRRR.RRRRRRRR.BBBCCCCB.CCSSSSSS # mapping memory address to dram model {dramid@<start bit>;<memory address map>}
-gpgpu_mem_addr_test                    0 # run sweep test to check address mapping for aliased address
-gpgpu_mem_address_mask                    1 # 0 = old addressing mask, 1 = new addressing mask, 2 = new add. mask + flipped bank sel and chip sel bits
-gpuwattch_xml_file  gpuwattch_gtx480.xml # GPUWattch XML file
-power_simulation_enabled                    1 # Turn on power simulator (1=On, 0=Off)
-power_per_cycle_dump                    0 # Dump detailed power output each cycle
-power_trace_enabled                    0 # produce a file for the power trace (1=On, 0=Off)
-power_trace_zlevel                     6 # Compression level of the power trace output log (0=no comp, 9=highest)
-steady_power_levels_enabled                    0 # produce a file for the steady power levels (1=On, 0=Off)
-steady_state_definition                  8:4 # allowed deviation:number of samples
-gpgpu_max_cycle                        0 # terminates gpu simulation early (0 = no limit)
-gpgpu_max_insn                         0 # terminates gpu simulation early (0 = no limit)
-gpgpu_max_cta                          0 # terminates gpu simulation early (0 = no limit)
-gpgpu_runtime_stat                   500 # display runtime statistics such as dram utilization {<freq>:<flag>}
-liveness_message_freq                    1 # Minimum number of seconds between simulation liveness messages (0 = always print)
-gpgpu_flush_l1_cache                    0 # Flush L1 cache at the end of each kernel call
-gpgpu_flush_l2_cache                    0 # Flush L2 cache at the end of each kernel call
-gpgpu_deadlock_detect                    1 # Stop the simulation at deadlock (1=on (default), 0=off)
-gpgpu_ptx_instruction_classification                    0 # if enabled will classify ptx instruction types per kernel (Max 255 kernels now)
-gpgpu_ptx_sim_mode                     0 # Select between Performance (default) or Functional simulation (1)
-gpgpu_clock_domains 700.0:700.0:700.0:924.0 # Clock Domain Frequencies in MhZ {<Core Clock>:<ICNT Clock>:<L2 Clock>:<DRAM Clock>}
-gpgpu_max_concurrent_kernel                    8 # maximum kernels that can run concurrently on GPU
-gpgpu_cflog_interval                    0 # Interval between each snapshot in control flow logger
-visualizer_enabled                     0 # Turn on visualizer output (1=On, 0=Off)
-visualizer_outputfile                 NULL # Specifies the output log file for visualizer
-visualizer_zlevel                      6 # Compression level of the visualizer output log (0=no comp, 9=highest)
-trace_enabled                          0 # Turn on traces
-trace_components                    none # comma seperated list of traces to enable. Complete list found in trace_streams.tup. Default none
-trace_sampling_core                    0 # The core which is printed using CORE_DPRINTF. Default 0
-trace_sampling_memory_partition                   -1 # The memory partition which is printed using MEMPART_DPRINTF. Default -1 (i.e. all)
-enable_ptx_file_line_stats                    1 # Turn on PTX source line statistic profiling. (1 = On)
-ptx_line_stats_filename gpgpu_inst_stats.txt # Output file for PTX source line statistics.
-save_embedded_ptx                      0 # saves ptx files embedded in binary as <n>.ptx
-keep                                   0 # keep intermediate files created by GPGPU-Sim when interfacing with external programs
-gpgpu_ptx_save_converted_ptxplus                    0 # Saved converted ptxplus to a file
-ptx_opcode_latency_int         4,13,4,5,145 # Opcode latencies for integers <ADD,MAX,MUL,MAD,DIV>Default 1,1,19,25,145
-ptx_opcode_latency_fp          4,13,4,5,39 # Opcode latencies for single precision floating points <ADD,MAX,MUL,MAD,DIV>Default 1,1,1,1,30
-ptx_opcode_latency_dp         8,19,8,8,330 # Opcode latencies for double precision floating points <ADD,MAX,MUL,MAD,DIV>Default 8,8,8,8,335
-ptx_opcode_initiation_int            1,2,2,1,8 # Opcode initiation intervals for integers <ADD,MAX,MUL,MAD,DIV>Default 1,1,4,4,32
-ptx_opcode_initiation_fp            1,2,1,1,4 # Opcode initiation intervals for single precision floating points <ADD,MAX,MUL,MAD,DIV>Default 1,1,1,1,5
-ptx_opcode_initiation_dp         8,16,8,8,130 # Opcode initiation intervals for double precision floating points <ADD,MAX,MUL,MAD,DIV>Default 8,8,8,8,130
DRAM Timing Options:
nbk                                    16 # number of banks
CCD                                     2 # column to column delay
RRD                                     6 # minimal delay between activation of rows in different banks
RCD                                    12 # row to column delay
RAS                                    28 # time needed to activate row
RP                                     12 # time needed to precharge (deactivate) row
RC                                     40 # row cycle time
CDLR                                    5 # switching from write to read (changes tWTR)
WR                                     12 # last data-in to row precharge
CL                                     12 # CAS latency
WL                                      4 # Write latency
nbkgrp                                  4 # number of bank groups
CCDL                                    3 # column to column delay between accesses to different bank groups
RTPL                                    2 # read to precharge delay between accesses to different bank groups
Total number of memory sub partition = 12
addr_dec_mask[CHIP]  = 0000000000000000 	high:64 low:0
addr_dec_mask[BK]    = 000000000000e100 	high:16 low:8
addr_dec_mask[ROW]   = 000000000fff0000 	high:28 low:16
addr_dec_mask[COL]   = 0000000000001eff 	high:13 low:0
addr_dec_mask[BURST] = 000000000000003f 	high:6 low:0
sub_partition_id_mask = 0000000000000100
GPGPU-Sim uArch: clock freqs: 700000000.000000:700000000.000000:700000000.000000:924000000.000000
GPGPU-Sim uArch: clock periods: 0.00000000142857142857:0.00000000142857142857:0.00000000142857142857:0.00000000108225108225
*** Initializing Memory Statistics ***
GPGPU-Sim uArch: interconnect node map (shaderID+MemID to icntID)
GPGPU-Sim uArch: Memory nodes ID start from index: 15
GPGPU-Sim uArch:    0   1   2   3   4
GPGPU-Sim uArch:    5   6   7   8   9
GPGPU-Sim uArch:   10  11  12  13  14
GPGPU-Sim uArch:   15  16  17  18  19
GPGPU-Sim uArch:   20  21  22  23  24
GPGPU-Sim uArch:   25  26
GPGPU-Sim uArch: interconnect node reverse map (icntID to shaderID+MemID)
GPGPU-Sim uArch: Memory nodes start from ID: 15
GPGPU-Sim uArch:    0   1   2   3   4
GPGPU-Sim uArch:    5   6   7   8   9
GPGPU-Sim uArch:   10  11  12  13  14
GPGPU-Sim uArch:   15  16  17  18  19
GPGPU-Sim uArch:   20  21  22  23  24
GPGPU-Sim uArch:   25  26
9a51b0436186d8fe768a14ef3ff22fe3  /home/gpgpu-sim/ispass2009-benchmarks/bin/release/BFS
GPGPU-Sim uArch: performance model initialization complete.
GPGPU-Sim PTX: __cudaRegisterFatBinary, fat_cubin_handle = 1, filename=bfs.cu
self exe links to: /home/gpgpu-sim/ispass2009-benchmarks/bin/release/BFS
Running md5sum using "md5sum /home/gpgpu-sim/ispass2009-benchmarks/bin/release/BFS "
Running cuobjdump using "$CUDA_INSTALL_PATH/bin/cuobjdump -ptx -elf -sass /home/gpgpu-sim/ispass2009-benchmarks/bin/release/BFS > _cuobjdump_complete_output_YAdQc0"
Parsing file _cuobjdump_complete_output_YAdQc0
######### cuobjdump parser ########
## Adding new section ELF
Adding arch: sm_30
Adding identifier: bfs.cu
## Adding new section PTX
Adding ptx filename: _cuobjdump_1.ptx
Adding arch: sm_30
Adding identifier: bfs.cu
## Adding new section ELF
Adding arch: sm_20
Adding identifier: bfs.cu
## Adding new section PTX
Adding ptx filename: _cuobjdump_2.ptx
Adding arch: sm_20
Adding identifier: bfs.cu
## Adding new section ELF
Adding arch: sm_10
Adding identifier: bfs.cu
## Adding new section PTX
Adding ptx filename: _cuobjdump_3.ptx
Adding arch: sm_10
Adding identifier: bfs.cu
Done parsing!!!
GPGPU-Sim PTX: __cudaRegisterFunction _Z6KernelP4NodePiPbS2_S1_S2_i : hostFun 0x0x4039f0, fat_cubin_handle = 1
GPGPU-Sim PTX: Warning %temp1 was declared previous at _1.ptx:58 skipping new declaration
GPGPU-Sim PTX: Warning %temp2 was declared previous at _1.ptx:59 skipping new declaration
GPGPU-Sim PTX: instruction assembly for function '_Z6KernelP4NodePiPbS2_S1_S2_i'...   done.
GPGPU-Sim PTX: finding reconvergence points for '_Z6KernelP4NodePiPbS2_S1_S2_i'...
GPGPU-Sim PTX: Finding dominators for '_Z6KernelP4NodePiPbS2_S1_S2_i'...
GPGPU-Sim PTX: Finding immediate dominators for '_Z6KernelP4NodePiPbS2_S1_S2_i'...
GPGPU-Sim PTX: Finding postdominators for '_Z6KernelP4NodePiPbS2_S1_S2_i'...
GPGPU-Sim PTX: Finding immediate postdominators for '_Z6KernelP4NodePiPbS2_S1_S2_i'...
GPGPU-Sim PTX: pre-decoding instructions for '_Z6KernelP4NodePiPbS2_S1_S2_i'...
GPGPU-Sim PTX: reconvergence points for _Z6KernelP4NodePiPbS2_S1_S2_i...
GPGPU-Sim PTX:  1 (potential) branch divergence @  PC=0x090 (_1.ptx:52) @%p1 bra BB0_7;
GPGPU-Sim PTX:    immediate post dominator      @  PC=0x208 (_1.ptx:133) ret;
GPGPU-Sim PTX:  2 (potential) branch divergence @  PC=0x0d0 (_1.ptx:65) @%p2 bra BB0_7;
GPGPU-Sim PTX:    immediate post dominator      @  PC=0x208 (_1.ptx:133) ret;
GPGPU-Sim PTX:  3 (potential) branch divergence @  PC=0x130 (_1.ptx:85) @%p3 bra BB0_7;
GPGPU-Sim PTX:    immediate post dominator      @  PC=0x208 (_1.ptx:133) ret;
GPGPU-Sim PTX:  4 (potential) branch divergence @  PC=0x190 (_1.ptx:107) @%p4 bra BB0_6;
GPGPU-Sim PTX:    immediate post dominator      @  PC=0x1d8 (_1.ptx:123) add.s32 %r29, %r29, 1;
GPGPU-Sim PTX:  5 (potential) branch divergence @  PC=0x200 (_1.ptx:129) @%p5 bra BB0_4;
GPGPU-Sim PTX:    immediate post dominator      @  PC=0x208 (_1.ptx:133) ret;
GPGPU-Sim PTX: ... end of reconvergence points for _Z6KernelP4NodePiPbS2_S1_S2_i
GPGPU-Sim PTX: ... done pre-decoding instructions for '_Z6KernelP4NodePiPbS2_S1_S2_i'.
GPGPU-Sim PTX: finished parsing EMBEDDED .ptx file _1.ptx
Adding _cuobjdump_2.ptx with cubin handle 1
GPGPU-Sim PTX: extracting embedded .ptx to temporary file "_ptx_0I5UHM"
Running: cat _ptx_0I5UHM | sed 's/.version 1.5/.version 1.4/' | sed 's/, texmode_independent//' | sed 's/\(\.extern \.const\[1\] .b8 \w\+\)\[\]/\1\[1\]/' | sed 's/const\[.\]/const\[0\]/g' > _ptx2_iaQ0cz
GPGPU-Sim PTX: generating ptxinfo using "$CUDA_INSTALL_PATH/bin/ptxas --gpu-name=sm_20 -v _ptx2_iaQ0cz --output-file  /dev/null 2> _ptx_0I5UHMinfo"
GPGPU-Sim PTX: Kernel '_Z6KernelP4NodePiPbS2_S1_S2_i' : regs=15, lmem=0, smem=0, cmem=84
GPGPU-Sim PTX: removing ptxinfo using "rm -f _ptx_0I5UHM _ptx2_iaQ0cz _ptx_0I5UHMinfo"
GPGPU-Sim PTX: loading globals with explicit initializers... 
GPGPU-Sim PTX: finished loading globals (0 bytes total).
GPGPU-Sim PTX: loading constants with explicit initializers...  done.
Reading File
Input file: /home/gpgpu-sim/ispass2009-benchmarks/BFS/data/graph4096.txt
Read File
Copied Everything to GPU memory

GPGPU-Sim PTX: cudaLaunch for 0x0x4039f0 (mode=performance simulation) on stream 0
GPGPU-Sim PTX: pushing kernel '_Z6KernelP4NodePiPbS2_S1_S2_i' to stream 0, gridDim= (16,1,1) blockDim = (256,1,1) 
kernel '_Z6KernelP4NodePiPbS2_S1_S2_i' transfer to GPU hardware scheduler
GPGPU-Sim uArch: Shader 1 bind to kernel 1 '_Z6KernelP4NodePiPbS2_S1_S2_i'
GPGPU-Sim uArch: CTA/core = 6, limited by: threads
GPGPU-Sim uArch: core:  1, cta: 0 initialized @(1,0)
GPGPU-Sim uArch: Shader 2 bind to kernel 1 '_Z6KernelP4NodePiPbS2_S1_S2_i'
GPGPU-Sim uArch: core:  2, cta: 0 initialized @(1,0)
GPGPU-Sim uArch: Shader 3 bind to kernel 1 '_Z6KernelP4NodePiPbS2_S1_S2_i'
GPGPU-Sim uArch: core:  3, cta: 0 initialized @(1,0)
GPGPU-Sim uArch: Shader 4 bind to kernel 1 '_Z6KernelP4NodePiPbS2_S1_S2_i'
GPGPU-Sim uArch: core:  4, cta: 0 initialized @(1,0)
GPGPU-Sim uArch: Shader 5 bind to kernel 1 '_Z6KernelP4NodePiPbS2_S1_S2_i'
GPGPU-Sim uArch: core:  5, cta: 0 initialized @(1,0)
GPGPU-Sim uArch: Shader 6 bind to kernel 1 '_Z6KernelP4NodePiPbS2_S1_S2_i'
GPGPU-Sim uArch: core:  6, cta: 0 initialized @(1,0)
GPGPU-Sim uArch: Shader 7 bind to kernel 1 '_Z6KernelP4NodePiPbS2_S1_S2_i'
GPGPU-Sim uArch: core:  7, cta: 0 initialized @(1,0)
GPGPU-Sim uArch: Shader 8 bind to kernel 1 '_Z6KernelP4NodePiPbS2_S1_S2_i'
GPGPU-Sim uArch: core:  8, cta: 0 initialized @(1,0)
GPGPU-Sim uArch: Shader 9 bind to kernel 1 '_Z6KernelP4NodePiPbS2_S1_S2_i'
GPGPU-Sim uArch: core:  9, cta: 0 initialized @(1,0)
GPGPU-Sim uArch: Shader 10 bind to kernel 1 '_Z6KernelP4NodePiPbS2_S1_S2_i'
GPGPU-Sim uArch: core: 10, cta: 0 initialized @(1,0)
GPGPU-Sim uArch: Shader 11 bind to kernel 1 '_Z6KernelP4NodePiPbS2_S1_S2_i'
GPGPU-Sim uArch: core: 11, cta: 0 initialized @(1,0)
GPGPU-Sim uArch: Shader 12 bind to kernel 1 '_Z6KernelP4NodePiPbS2_S1_S2_i'
GPGPU-Sim uArch: core: 12, cta: 0 initialized @(1,0)
GPGPU-Sim uArch: Shader 13 bind to kernel 1 '_Z6KernelP4NodePiPbS2_S1_S2_i'
GPGPU-Sim uArch: core: 13, cta: 0 initialized @(1,0)
GPGPU-Sim uArch: Shader 14 bind to kernel 1 '_Z6KernelP4NodePiPbS2_S1_S2_i'
GPGPU-Sim uArch: core: 14, cta: 0 initialized @(1,0)
GPGPU-Sim uArch: Shader 0 bind to kernel 1 '_Z6KernelP4NodePiPbS2_S1_S2_i'
GPGPU-Sim uArch: core:  0, cta: 0 initialized @(1,0)
GPGPU-Sim uArch: core:  1, cta: 1 initialized @(2,0)
GPGPU-Sim uArch: cycles simulated: 500  inst.: 0 (ipc= 0.0) sim_rate=0 (inst/sec) elapsed = 0:0:00:01 / Sun Apr 26 17:50:11 2020
mem_inter_issue_at 567
mem_inter_issue_at 568
mem_inter_issue_at 569
mem_inter_issue_at 570
mem_inter_issue_at 571
mem_inter_issue_at 571
mem_inter_issue_at 571
mem_inter_issue_at 572
mem_inter_issue_at 572
mem_inter_issue_at 572
mem_inter_issue_at 573
mem_inter_issue_at 573
mem_inter_issue_at 573
mem_inter_issue_at 573
mem_inter_issue_at 574
mem_inter_issue_at 574
mem_inter_issue_at 574
mem_inter_issue_at 575
mem_inter_issue_at 575
mem_inter_issue_at 575
mem_inter_issue_at 575
mem_inter_issue_at 575
mem_inter_issue_at 576
mem_inter_issue_at 576
mem_inter_issue_at 576
mem_inter_issue_at 576
mem_inter_issue_at 576
mem_inter_issue_at 576
mem_inter_issue_at 577
mem_inter_issue_at 577
mem_inter_issue_at 577
mem_inter_issue_at 577
mem_inter_issue_at 577
mem_inter_issue_at 577
mem_inter_issue_at 577
mem_inter_issue_at 578
mem_inter_issue_at 578
mem_inter_issue_at 578
mem_inter_issue_at 578
mem_inter_issue_at 578
mem_inter_issue_at 579
mem_inter_issue_at 579
mem_inter_issue_at 579
mem_inter_issue_at 579
mem_inter_issue_at 579
mem_inter_issue_at 579
mem_inter_issue_at 580
mem_inter_issue_at 580
mem_inter_issue_at 580
mem_inter_issue_at 580
mem_inter_issue_at 580
mem_inter_issue_at 581
mem_inter_issue_at 581
mem_inter_issue_at 581
mem_inter_issue_at 581
mem_inter_issue_at 581
mem_inter_issue_at 581
mem_inter_issue_at 581
mem_inter_issue_at 581
mem_inter_issue_at 582
mem_inter_issue_at 582
mem_inter_issue_at 582
mem_inter_issue_at 582
mem_inter_issue_at 582
mem_inter_issue_at 582
mem_inter_issue_at 582
mem_inter_issue_at 583
mem_inter_issue_at 583
mem_inter_issue_at 583
mem_inter_issue_at 583
mem_inter_issue_at 583
mem_inter_issue_at 583
mem_inter_issue_at 583
mem_inter_issue_at 584
mem_inter_issue_at 584
mem_inter_issue_at 584
mem_inter_issue_at 584
mem_inter_issue_at 584
mem_inter_issue_at 584
mem_inter_issue_at 584
mem_inter_issue_at 585
mem_inter_issue_at 585
mem_inter_issue_at 585
mem_inter_issue_at 585
mem_inter_issue_at 585
mem_inter_issue_at 585
mem_inter_issue_at 586
mem_inter_issue_at 586
mem_inter_issue_at 586
mem_inter_issue_at 586
mem_inter_issue_at 586
mem_inter_issue_at 586
mem_inter_issue_at 587
mem_inter_issue_at 587
mem_inter_issue_at 587
mem_inter_issue_at 587
mem_inter_issue_at 587
mem_inter_issue_at 587
mem_inter_issue_at 588
mem_inter_issue_at 588
mem_inter_issue_at 588
mem_inter_issue_at 588
mem_inter_issue_at 588
mem_inter_issue_at 588
mem_inter_issue_at 588
mem_inter_issue_at 588
mem_inter_issue_at 589
mem_inter_issue_at 589
mem_inter_issue_at 589
mem_inter_issue_at 589
mem_inter_issue_at 589
mem_inter_issue_at 589
mem_inter_issue_at 590
mem_inter_issue_at 590
mem_inter_issue_at 590
mem_inter_issue_at 590
mem_inter_issue_at 590
mem_inter_issue_at 590
mem_inter_issue_at 590
mem_inter_issue_at 590
mem_inter_issue_at 591
mem_inter_issue_at 591
mem_inter_issue_at 591
mem_inter_issue_at 591
mem_inter_issue_at 591
mem_inter_issue_at 591
mem_inter_issue_at 591
mem_inter_issue_at 591
mem_inter_issue_at 591
mem_inter_issue_at 592
mem_inter_issue_at 592
mem_inter_issue_at 592
mem_inter_issue_at 592
mem_inter_issue_at 592
mem_inter_issue_at 592
mem_inter_issue_at 592
mem_inter_issue_at 592
mem_inter_issue_at 593
mem_inter_issue_at 593
mem_inter_issue_at 593
mem_inter_issue_at 593
mem_inter_issue_at 593
mem_inter_issue_at 593
mem_inter_issue_at 594
mem_inter_issue_at 594
mem_inter_issue_at 594
mem_inter_issue_at 594
mem_inter_issue_at 594
mem_inter_issue_at 594
mem_inter_issue_at 594
mem_inter_issue_at 595
mem_inter_issue_at 595
mem_inter_issue_at 595
mem_inter_issue_at 595
mem_inter_issue_at 595
mem_inter_issue_at 595
mem_inter_issue_at 595
mem_inter_issue_at 595
mem_inter_issue_at 595
mem_inter_issue_at 595
mem_inter_issue_at 595
mem_inter_issue_at 596
mem_inter_issue_at 596
mem_inter_issue_at 596
mem_inter_issue_at 596
mem_inter_issue_at 596
mem_inter_issue_at 596
mem_inter_issue_at 596
mem_inter_issue_at 596
mem_inter_issue_at 596
mem_inter_issue_at 596
mem_inter_issue_at 596
mem_inter_issue_at 596
mem_inter_issue_at 597
mem_inter_issue_at 597
mem_inter_issue_at 597
mem_inter_issue_at 597
mem_inter_issue_at 597
mem_inter_issue_at 597
mem_inter_issue_at 597
mem_inter_issue_at 597
mem_inter_issue_at 597
mem_inter_issue_at 597
mem_inter_issue_at 597
mem_inter_issue_at 597
mem_inter_issue_at 598
mem_inter_issue_at 598
mem_inter_issue_at 598
mem_inter_issue_at 598
mem_inter_issue_at 598
mem_inter_issue_at 598
mem_inter_issue_at 598
mem_inter_issue_at 598
mem_inter_issue_at 598
mem_inter_issue_at 598
mem_inter_issue_at 598
mem_inter_issue_at 599
mem_inter_issue_at 599
mem_inter_issue_at 599
mem_inter_issue_at 599
mem_inter_issue_at 599
mem_inter_issue_at 599
mem_inter_issue_at 599
mem_inter_issue_at 599
mem_inter_issue_at 599
mem_inter_issue_at 599
mem_inter_issue_at 600
mem_inter_issue_at 600
mem_inter_issue_at 600
mem_inter_issue_at 600
mem_inter_issue_at 600
mem_inter_issue_at 600
mem_inter_issue_at 600
mem_inter_issue_at 600
mem_inter_issue_at 600
mem_inter_issue_at 600
mem_inter_issue_at 600
mem_inter_issue_at 600
mem_inter_issue_at 600
mem_inter_issue_at 600
mem_inter_issue_at 601
mem_inter_issue_at 601
mem_inter_issue_at 601
mem_inter_issue_at 601
mem_inter_issue_at 601
mem_inter_issue_at 601
mem_inter_issue_at 601
mem_inter_issue_at 601
mem_inter_issue_at 601
mem_inter_issue_at 601
mem_inter_issue_at 601
mem_inter_issue_at 602
mem_inter_issue_at 602
mem_inter_issue_at 602
mem_inter_issue_at 602
mem_inter_issue_at 602
mem_inter_issue_at 602
mem_inter_issue_at 602
mem_inter_issue_at 602
mem_inter_issue_at 602
mem_inter_issue_at 602
mem_inter_issue_at 602
mem_inter_issue_at 602
mem_inter_issue_at 603
mem_inter_issue_at 603
mem_inter_issue_at 603
mem_inter_issue_at 603
mem_inter_issue_at 603
mem_inter_issue_at 603
mem_inter_issue_at 603
mem_inter_issue_at 603
mem_inter_issue_at 603
mem_inter_issue_at 603
mem_inter_issue_at 603
mem_inter_issue_at 603
mem_inter_issue_at 603
mem_inter_issue_at 603
mem_inter_issue_at 604
mem_inter_issue_at 604
mem_inter_issue_at 604
mem_inter_issue_at 604
mem_inter_issue_at 604
mem_inter_issue_at 604
mem_inter_issue_at 604
mem_inter_issue_at 604
mem_inter_issue_at 604
mem_inter_issue_at 604
mem_inter_issue_at 604
mem_inter_issue_at 604
mem_inter_issue_at 604
mem_inter_issue_at 604
mem_inter_issue_at 605
mem_inter_issue_at 605
mem_inter_issue_at 605
mem_inter_issue_at 605
mem_inter_issue_at 605
mem_inter_issue_at 605
mem_inter_issue_at 605
mem_inter_issue_at 605
mem_inter_issue_at 605
mem_inter_issue_at 605
mem_inter_issue_at 605
mem_inter_issue_at 605
mem_inter_issue_at 605
mem_inter_issue_at 605
mem_inter_issue_at 605
mem_inter_issue_at 605
mem_inter_issue_at 606
mem_inter_issue_at 606
mem_inter_issue_at 606
mem_inter_issue_at 606
mem_inter_issue_at 606
mem_inter_issue_at 606
mem_inter_issue_at 606
mem_inter_issue_at 606
mem_inter_issue_at 606
mem_inter_issue_at 606
mem_inter_issue_at 606
mem_inter_issue_at 606
mem_inter_issue_at 606
mem_inter_issue_at 606
mem_inter_issue_at 606
mem_inter_issue_at 607
mem_inter_issue_at 607
mem_inter_issue_at 607
mem_inter_issue_at 607
mem_inter_issue_at 607
mem_inter_issue_at 607
mem_inter_issue_at 607
mem_inter_issue_at 607
mem_inter_issue_at 607
mem_inter_issue_at 607
mem_inter_issue_at 607
mem_inter_issue_at 607
mem_inter_issue_at 607
mem_inter_issue_at 608
mem_inter_issue_at 608
mem_inter_issue_at 608
mem_inter_issue_at 608
mem_inter_issue_at 608
mem_inter_issue_at 608
mem_inter_issue_at 608
mem_inter_issue_at 608
mem_inter_issue_at 608
mem_inter_issue_at 608
mem_inter_issue_at 608
mem_inter_issue_at 608
mem_inter_issue_at 608
mem_inter_issue_at 609
mem_inter_issue_at 609
mem_inter_issue_at 609
mem_inter_issue_at 609
mem_inter_issue_at 609
mem_inter_issue_at 609
mem_inter_issue_at 609
mem_inter_issue_at 609
mem_inter_issue_at 609
mem_inter_issue_at 610
mem_inter_issue_at 610
mem_inter_issue_at 610
mem_inter_issue_at 610
mem_inter_issue_at 610
mem_inter_issue_at 610
mem_inter_issue_at 610
mem_inter_issue_at 610
mem_inter_issue_at 610
mem_inter_issue_at 610
mem_inter_issue_at 610
mem_inter_issue_at 610
mem_inter_issue_at 610
mem_inter_issue_at 610
mem_inter_issue_at 610
mem_inter_issue_at 610
mem_inter_issue_at 611
mem_inter_issue_at 611
mem_inter_issue_at 611
mem_inter_issue_at 611
mem_inter_issue_at 611
mem_inter_issue_at 611
mem_inter_issue_at 611
mem_inter_issue_at 611
mem_inter_issue_at 611
mem_inter_issue_at 611
mem_inter_issue_at 611
mem_inter_issue_at 611
mem_inter_issue_at 611
mem_inter_issue_at 611
mem_inter_issue_at 611
mem_inter_issue_at 611
mem_inter_issue_at 611
mem_inter_issue_at 611
mem_inter_issue_at 612
mem_inter_issue_at 612
mem_inter_issue_at 612
mem_inter_issue_at 612
mem_inter_issue_at 612
mem_inter_issue_at 612
mem_inter_issue_at 612
mem_inter_issue_at 612
mem_inter_issue_at 612
mem_inter_issue_at 612
mem_inter_issue_at 612
mem_inter_issue_at 612
mem_inter_issue_at 612
mem_inter_issue_at 612
mem_inter_issue_at 613
mem_inter_issue_at 613
mem_inter_issue_at 613
mem_inter_issue_at 613
mem_inter_issue_at 613
mem_inter_issue_at 613
mem_inter_issue_at 613
mem_inter_issue_at 613
mem_inter_issue_at 613
mem_inter_issue_at 613
mem_inter_issue_at 613
mem_inter_issue_at 613
mem_inter_issue_at 613
mem_inter_issue_at 613
mem_inter_issue_at 613
mem_inter_issue_at 613
mem_inter_issue_at 614
mem_inter_issue_at 614
mem_inter_issue_at 614
mem_inter_issue_at 614
mem_inter_issue_at 614
mem_inter_issue_at 614
mem_inter_issue_at 614
mem_inter_issue_at 614
mem_inter_issue_at 614
mem_inter_issue_at 614
mem_inter_issue_at 614
mem_inter_issue_at 614
mem_inter_issue_at 614
mem_inter_issue_at 614
mem_inter_issue_at 614
mem_inter_issue_at 614
mem_inter_issue_at 615
mem_inter_issue_at 615
mem_inter_issue_at 615
mem_inter_issue_at 615
mem_inter_issue_at 615
mem_inter_issue_at 615
mem_inter_issue_at 615
mem_inter_issue_at 615
mem_inter_issue_at 615
mem_inter_issue_at 615
mem_inter_issue_at 615
mem_inter_issue_at 615
mem_inter_issue_at 615
mem_inter_issue_at 615
mem_inter_issue_at 615
mem_inter_issue_at 615
mem_inter_issue_at 615
mem_inter_issue_at 616
mem_inter_issue_at 616
mem_inter_issue_at 616
mem_inter_issue_at 616
mem_inter_issue_at 616
mem_inter_issue_at 616
mem_inter_issue_at 616
mem_inter_issue_at 616
mem_inter_issue_at 616
mem_inter_issue_at 616
mem_inter_issue_at 616
mem_inter_issue_at 616
mem_inter_issue_at 616
mem_inter_issue_at 616
mem_inter_issue_at 616
mem_inter_issue_at 616
mem_inter_issue_at 617
mem_inter_issue_at 617
mem_inter_issue_at 617
mem_inter_issue_at 617
mem_inter_issue_at 617
mem_inter_issue_at 617
mem_inter_issue_at 617
mem_inter_issue_at 617
mem_inter_issue_at 617
mem_inter_issue_at 617
mem_inter_issue_at 617
mem_inter_issue_at 617
mem_inter_issue_at 617
mem_inter_issue_at 617
mem_inter_issue_at 617
mem_inter_issue_at 618
mem_inter_issue_at 618
mem_inter_issue_at 618
mem_inter_issue_at 618
mem_inter_issue_at 618
mem_inter_issue_at 618
mem_inter_issue_at 618
mem_inter_issue_at 618
mem_inter_issue_at 618
mem_inter_issue_at 618
mem_inter_issue_at 618
mem_inter_issue_at 618
mem_inter_issue_at 618
mem_inter_issue_at 618
mem_inter_issue_at 618
mem_inter_issue_at 618
mem_inter_issue_at 618
mem_inter_issue_at 619
mem_inter_issue_at 619
mem_inter_issue_at 619
mem_inter_issue_at 619
mem_inter_issue_at 619
mem_inter_issue_at 619
mem_inter_issue_at 619
mem_inter_issue_at 619
mem_inter_issue_at 619
mem_inter_issue_at 619
mem_inter_issue_at 619
mem_inter_issue_at 619
mem_inter_issue_at 619
mem_inter_issue_at 619
mem_inter_issue_at 619
mem_inter_issue_at 619
mem_inter_issue_at 619
mem_inter_issue_at 620
mem_inter_issue_at 620
mem_inter_issue_at 620
mem_inter_issue_at 620
mem_inter_issue_at 620
mem_inter_issue_at 620
mem_inter_issue_at 620
mem_inter_issue_at 620
mem_inter_issue_at 620
mem_inter_issue_at 620
mem_inter_issue_at 620
mem_inter_issue_at 620
mem_inter_issue_at 620
mem_inter_issue_at 620
mem_inter_issue_at 621
mem_inter_issue_at 621
mem_inter_issue_at 621
mem_inter_issue_at 621
mem_inter_issue_at 621
mem_inter_issue_at 621
mem_inter_issue_at 621
mem_inter_issue_at 621
mem_inter_issue_at 621
mem_inter_issue_at 621
mem_inter_issue_at 621
mem_inter_issue_at 621
mem_inter_issue_at 621
mem_inter_issue_at 621
mem_inter_issue_at 621
mem_inter_issue_at 621
mem_inter_issue_at 621
mem_inter_issue_at 621
mem_inter_issue_at 622
mem_inter_issue_at 622
mem_inter_issue_at 622
mem_inter_issue_at 622
mem_inter_issue_at 622
mem_inter_issue_at 622
mem_inter_issue_at 622
mem_inter_issue_at 622
mem_inter_issue_at 622
mem_inter_issue_at 622
mem_inter_issue_at 622
mem_inter_issue_at 622
mem_inter_issue_at 622
mem_inter_issue_at 622
mem_inter_issue_at 622
mem_inter_issue_at 622
mem_inter_issue_at 622
mem_inter_issue_at 622
mem_inter_issue_at 623
mem_inter_issue_at 623
mem_inter_issue_at 623
mem_inter_issue_at 623
mem_inter_issue_at 623
mem_inter_issue_at 623
mem_inter_issue_at 623
mem_inter_issue_at 623
mem_inter_issue_at 623
mem_inter_issue_at 623
mem_inter_issue_at 623
mem_inter_issue_at 623
mem_inter_issue_at 623
mem_inter_issue_at 623
mem_inter_issue_at 623
mem_inter_issue_at 623
mem_inter_issue_at 624
mem_inter_issue_at 624
mem_inter_issue_at 624
mem_inter_issue_at 624
mem_inter_issue_at 624
mem_inter_issue_at 624
mem_inter_issue_at 624
mem_inter_issue_at 624
mem_inter_issue_at 624
mem_inter_issue_at 624
mem_inter_issue_at 624
mem_inter_issue_at 624
mem_inter_issue_at 624
mem_inter_issue_at 624
mem_inter_issue_at 624
mem_inter_issue_at 624
mem_inter_issue_at 624
mem_inter_issue_at 624
mem_inter_issue_at 625
mem_inter_issue_at 625
mem_inter_issue_at 625
mem_inter_issue_at 625
mem_inter_issue_at 625
mem_inter_issue_at 625
mem_inter_issue_at 625
mem_inter_issue_at 625
mem_inter_issue_at 625
mem_inter_issue_at 625
mem_inter_issue_at 625
mem_inter_issue_at 625
mem_inter_issue_at 625
mem_inter_issue_at 625
mem_inter_issue_at 625
mem_inter_issue_at 625
mem_inter_issue_at 625
mem_inter_issue_at 626
mem_inter_issue_at 626
mem_inter_issue_at 626
mem_inter_issue_at 626
mem_inter_issue_at 626
mem_inter_issue_at 626
mem_inter_issue_at 626
mem_inter_issue_at 626
mem_inter_issue_at 626
mem_inter_issue_at 626
mem_inter_issue_at 626
mem_inter_issue_at 626
mem_inter_issue_at 626
mem_inter_issue_at 626
mem_inter_issue_at 626
mem_inter_issue_at 626
mem_inter_issue_at 626
mem_inter_issue_at 627
mem_inter_issue_at 627
mem_inter_issue_at 627
mem_inter_issue_at 627
mem_inter_issue_at 627
mem_inter_issue_at 627
mem_inter_issue_at 627
mem_inter_issue_at 627
mem_inter_issue_at 627
mem_inter_issue_at 627
mem_inter_issue_at 627
mem_inter_issue_at 627
mem_inter_issue_at 627
mem_inter_issue_at 627
mem_inter_issue_at 627
mem_inter_issue_at 627
mem_inter_issue_at 628
mem_inter_issue_at 628
mem_inter_issue_at 628
mem_inter_issue_at 628
mem_inter_issue_at 628
mem_inter_issue_at 628
mem_inter_issue_at 628
mem_inter_issue_at 628
mem_inter_issue_at 628
mem_inter_issue_at 628
mem_inter_issue_at 628
mem_inter_issue_at 628
mem_inter_issue_at 628
mem_inter_issue_at 628
mem_inter_issue_at 628
mem_inter_issue_at 628
mem_inter_issue_at 629
mem_inter_issue_at 629
mem_inter_issue_at 629
mem_inter_issue_at 629
mem_inter_issue_at 629
mem_inter_issue_at 629
mem_inter_issue_at 629
mem_inter_issue_at 629
mem_inter_issue_at 629
mem_inter_issue_at 629
mem_inter_issue_at 629
mem_inter_issue_at 629
mem_inter_issue_at 629
mem_inter_issue_at 629
mem_inter_issue_at 629
mem_inter_issue_at 629
mem_inter_issue_at 629
mem_inter_issue_at 630
mem_inter_issue_at 630
mem_inter_issue_at 630
mem_inter_issue_at 630
mem_inter_issue_at 630
mem_inter_issue_at 630
mem_inter_issue_at 630
mem_inter_issue_at 630
mem_inter_issue_at 630
mem_inter_issue_at 630
mem_inter_issue_at 630
mem_inter_issue_at 630
mem_inter_issue_at 630
mem_inter_issue_at 630
mem_inter_issue_at 630
mem_inter_issue_at 630
mem_inter_issue_at 631
mem_inter_issue_at 631
mem_inter_issue_at 631
mem_inter_issue_at 631
mem_inter_issue_at 631
mem_inter_issue_at 631
mem_inter_issue_at 631
mem_inter_issue_at 631
mem_inter_issue_at 631
mem_inter_issue_at 631
mem_inter_issue_at 631
mem_inter_issue_at 631
mem_inter_issue_at 631
mem_inter_issue_at 631
mem_inter_issue_at 631
mem_inter_issue_at 632
mem_inter_issue_at 632
mem_inter_issue_at 632
mem_inter_issue_at 632
mem_inter_issue_at 632
mem_inter_issue_at 632
mem_inter_issue_at 632
mem_inter_issue_at 632
mem_inter_issue_at 632
mem_inter_issue_at 632
mem_inter_issue_at 632
mem_inter_issue_at 632
mem_inter_issue_at 632
mem_inter_issue_at 632
mem_inter_issue_at 632
mem_inter_issue_at 632
mem_inter_issue_at 632
mem_inter_issue_at 632
mem_inter_issue_at 632
mem_inter_issue_at 633
mem_inter_issue_at 633
mem_inter_issue_at 633
mem_inter_issue_at 633
mem_inter_issue_at 633
mem_inter_issue_at 633
mem_inter_issue_at 633
mem_inter_issue_at 633
mem_inter_issue_at 633
mem_inter_issue_at 633
mem_inter_issue_at 633
mem_inter_issue_at 633
mem_inter_issue_at 633
mem_inter_issue_at 634
mem_inter_issue_at 634
mem_inter_issue_at 634
mem_inter_issue_at 634
mem_inter_issue_at 634
mem_inter_issue_at 634
mem_inter_issue_at 634
mem_inter_issue_at 634
mem_inter_issue_at 634
mem_inter_issue_at 634
mem_inter_issue_at 634
mem_inter_issue_at 634
mem_inter_issue_at 634
mem_inter_issue_at 634
mem_inter_issue_at 634
mem_inter_issue_at 634
mem_inter_issue_at 635
mem_inter_issue_at 635
mem_inter_issue_at 635
mem_inter_issue_at 635
mem_inter_issue_at 635
mem_inter_issue_at 635
mem_inter_issue_at 635
mem_inter_issue_at 635
mem_inter_issue_at 635
mem_inter_issue_at 635
mem_inter_issue_at 635
mem_inter_issue_at 635
mem_inter_issue_at 635
mem_inter_issue_at 635
mem_inter_issue_at 635
mem_inter_issue_at 635
mem_inter_issue_at 636
mem_inter_issue_at 636
mem_inter_issue_at 636
mem_inter_issue_at 636
mem_inter_issue_at 636
mem_inter_issue_at 636
mem_inter_issue_at 636
mem_inter_issue_at 636
mem_inter_issue_at 636
mem_inter_issue_at 636
mem_inter_issue_at 636
mem_inter_issue_at 636
mem_inter_issue_at 636
mem_inter_issue_at 637
mem_inter_issue_at 637
mem_inter_issue_at 637
mem_inter_issue_at 637
mem_inter_issue_at 637
mem_inter_issue_at 637
mem_inter_issue_at 637
mem_inter_issue_at 637
mem_inter_issue_at 637
mem_inter_issue_at 637
mem_inter_issue_at 637
mem_inter_issue_at 637
mem_inter_issue_at 637
mem_inter_issue_at 637
mem_inter_issue_at 637
mem_inter_issue_at 638
mem_inter_issue_at 638
mem_inter_issue_at 638
mem_inter_issue_at 638
mem_inter_issue_at 638
mem_inter_issue_at 638
mem_inter_issue_at 638
mem_inter_issue_at 638
mem_inter_issue_at 638
mem_inter_issue_at 638
mem_inter_issue_at 638
mem_inter_issue_at 638
mem_inter_issue_at 638
mem_inter_issue_at 639
mem_inter_issue_at 639
mem_inter_issue_at 639
mem_inter_issue_at 639
mem_inter_issue_at 639
mem_inter_issue_at 639
mem_inter_issue_at 639
mem_inter_issue_at 639
mem_inter_issue_at 639
mem_inter_issue_at 639
mem_inter_issue_at 639
mem_inter_issue_at 639
mem_inter_issue_at 639
mem_inter_issue_at 640
mem_inter_issue_at 640
mem_inter_issue_at 640
mem_inter_issue_at 640
mem_inter_issue_at 640
mem_inter_issue_at 640
mem_inter_issue_at 640
mem_inter_issue_at 640
mem_inter_issue_at 640
mem_inter_issue_at 640
mem_inter_issue_at 640
mem_inter_issue_at 640
mem_inter_issue_at 640
mem_inter_issue_at 640
mem_inter_issue_at 640
mem_inter_issue_at 641
mem_inter_issue_at 641
mem_inter_issue_at 641
mem_inter_issue_at 641
mem_inter_issue_at 641
mem_inter_issue_at 641
mem_inter_issue_at 641
mem_inter_issue_at 641
mem_inter_issue_at 641
mem_inter_issue_at 641
mem_inter_issue_at 641
mem_inter_issue_at 641
mem_inter_issue_at 641
mem_inter_issue_at 642
mem_inter_issue_at 642
mem_inter_issue_at 642
mem_inter_issue_at 642
mem_inter_issue_at 642
mem_inter_issue_at 642
mem_inter_issue_at 642
mem_inter_issue_at 642
mem_inter_issue_at 642
mem_inter_issue_at 642
mem_inter_issue_at 642
mem_inter_issue_at 642
mem_inter_issue_at 642
mem_inter_issue_at 642
mem_inter_issue_at 643
mem_inter_issue_at 643
mem_inter_issue_at 643
mem_inter_issue_at 643
mem_inter_issue_at 643
mem_inter_issue_at 643
mem_inter_issue_at 643
mem_inter_issue_at 643
mem_inter_issue_at 643
mem_inter_issue_at 643
mem_inter_issue_at 643
mem_inter_issue_at 643
mem_inter_issue_at 644
mem_inter_issue_at 644
mem_inter_issue_at 644
mem_inter_issue_at 644
mem_inter_issue_at 644
mem_inter_issue_at 644
mem_inter_issue_at 644
mem_inter_issue_at 644
mem_inter_issue_at 644
mem_inter_issue_at 644
mem_inter_issue_at 644
mem_inter_issue_at 644
mem_inter_issue_at 645
mem_inter_issue_at 645
mem_inter_issue_at 645
mem_inter_issue_at 645
mem_inter_issue_at 645
mem_inter_issue_at 645
mem_inter_issue_at 645
mem_inter_issue_at 645
mem_inter_issue_at 645
mem_inter_issue_at 645
mem_inter_issue_at 645
mem_inter_issue_at 646
mem_inter_issue_at 646
mem_inter_issue_at 646
mem_inter_issue_at 646
mem_inter_issue_at 646
mem_inter_issue_at 646
mem_inter_issue_at 646
mem_inter_issue_at 646
mem_inter_issue_at 646
mem_inter_issue_at 647
mem_inter_issue_at 647
mem_inter_issue_at 647
mem_inter_issue_at 647
mem_inter_issue_at 647
mem_inter_issue_at 647
mem_inter_issue_at 647
mem_inter_issue_at 647
mem_inter_issue_at 647
mem_inter_issue_at 647
mem_inter_issue_at 647
mem_inter_issue_at 648
mem_inter_issue_at 648
mem_inter_issue_at 648
mem_inter_issue_at 648
mem_inter_issue_at 648
mem_inter_issue_at 648
mem_inter_issue_at 648
mem_inter_issue_at 648
mem_inter_issue_at 648
mem_inter_issue_at 648
mem_inter_issue_at 648
mem_inter_issue_at 648
mem_inter_issue_at 649
mem_inter_issue_at 649
mem_inter_issue_at 649
mem_inter_issue_at 649
mem_inter_issue_at 649
mem_inter_issue_at 649
mem_inter_issue_at 649
mem_inter_issue_at 649
mem_inter_issue_at 649
mem_inter_issue_at 649
mem_inter_issue_at 649
mem_inter_issue_at 649
mem_inter_issue_at 650
mem_inter_issue_at 650
mem_inter_issue_at 650
mem_inter_issue_at 650
mem_inter_issue_at 650
mem_inter_issue_at 650
mem_inter_issue_at 650
mem_inter_issue_at 650
mem_inter_issue_at 650
mem_inter_issue_at 650
mem_inter_issue_at 651
mem_inter_issue_at 651
mem_inter_issue_at 651
mem_inter_issue_at 651
mem_inter_issue_at 651
mem_inter_issue_at 651
mem_inter_issue_at 651
mem_inter_issue_at 651
mem_inter_issue_at 651
mem_inter_issue_at 651
mem_inter_issue_at 652
mem_inter_issue_at 652
mem_inter_issue_at 652
mem_inter_issue_at 652
mem_inter_issue_at 652
mem_inter_issue_at 652
mem_inter_issue_at 652
mem_inter_issue_at 652
mem_inter_issue_at 652
mem_inter_issue_at 653
mem_inter_issue_at 653
mem_inter_issue_at 653
mem_inter_issue_at 653
mem_inter_issue_at 653
mem_inter_issue_at 653
mem_inter_issue_at 653
mem_inter_issue_at 653
mem_inter_issue_at 654
mem_inter_issue_at 654
mem_inter_issue_at 654
mem_inter_issue_at 654
mem_inter_issue_at 654
mem_inter_issue_at 654
mem_inter_issue_at 654
mem_inter_issue_at 654
mem_inter_issue_at 655
mem_inter_issue_at 655
mem_inter_issue_at 655
mem_inter_issue_at 655
mem_inter_issue_at 655
mem_inter_issue_at 655
mem_inter_issue_at 656
mem_inter_issue_at 656
mem_inter_issue_at 656
mem_inter_issue_at 656
mem_inter_issue_at 656
mem_inter_issue_at 656
mem_inter_issue_at 656
mem_inter_issue_at 657
mem_inter_issue_at 657
mem_inter_issue_at 657
mem_inter_issue_at 657
mem_inter_issue_at 657
mem_inter_issue_at 657
mem_inter_issue_at 657
mem_inter_issue_at 657
mem_inter_issue_at 657
mem_inter_issue_at 658
mem_inter_issue_at 658
mem_inter_issue_at 658
mem_inter_issue_at 658
mem_inter_issue_at 658
mem_inter_issue_at 658
mem_inter_issue_at 658
mem_inter_issue_at 659
mem_inter_issue_at 659
mem_inter_issue_at 659
mem_inter_issue_at 659
mem_inter_issue_at 659
mem_inter_issue_at 659
mem_inter_issue_at 660
mem_inter_issue_at 660
mem_inter_issue_at 660
mem_inter_issue_at 660
mem_inter_issue_at 660
mem_inter_issue_at 661
mem_inter_issue_at 661
mem_inter_issue_at 661
mem_inter_issue_at 661
mem_inter_issue_at 661
mem_inter_issue_at 662
mem_inter_issue_at 662
mem_inter_issue_at 662
mem_inter_issue_at 662
mem_inter_issue_at 662
mem_inter_issue_at 663
mem_inter_issue_at 663
mem_inter_issue_at 663
mem_inter_issue_at 664
mem_inter_issue_at 664
mem_inter_issue_at 664
mem_inter_issue_at 664
mem_inter_issue_at 664
mem_inter_issue_at 665
mem_inter_issue_at 665
mem_inter_issue_at 665
mem_inter_issue_at 665
mem_inter_issue_at 665
mem_inter_issue_at 665
mem_inter_issue_at 665
mem_inter_issue_at 666
mem_inter_issue_at 666
mem_inter_issue_at 666
mem_inter_issue_at 666
mem_inter_issue_at 667
mem_inter_issue_at 667
mem_inter_issue_at 667
mem_inter_issue_at 668
mem_inter_issue_at 668
mem_inter_issue_at 668
mem_inter_issue_at 669
mem_inter_issue_at 669
mem_inter_issue_at 669
mem_inter_issue_at 669
mem_inter_issue_at 669
mem_inter_issue_at 669
mem_inter_issue_at 670
mem_inter_issue_at 670
mem_inter_issue_at 671
mem_inter_issue_at 671
mem_inter_issue_at 672
mem_inter_issue_at 672
mem_inter_issue_at 672
mem_inter_issue_at 672
mem_inter_issue_at 672
mem_inter_issue_at 673
mem_inter_issue_at 673
mem_inter_issue_at 673
mem_inter_issue_at 673
mem_inter_issue_at 673
mem_inter_issue_at 674
mem_inter_issue_at 674
mem_inter_issue_at 674
mem_inter_issue_at 675
mem_inter_issue_at 675
mem_inter_issue_at 676
mem_inter_issue_at 676
mem_inter_issue_at 676
mem_inter_issue_at 676
mem_inter_issue_at 677
mem_inter_issue_at 677
mem_inter_issue_at 677
mem_inter_issue_at 678
mem_inter_issue_at 678
mem_inter_issue_at 679
mem_inter_issue_at 679
mem_inter_issue_at 680
mem_inter_issue_at 680
mem_inter_issue_at 680
mem_inter_issue_at 680
mem_inter_issue_at 681
mem_inter_issue_at 681
mem_inter_issue_at 682
mem_inter_issue_at 683
mem_inter_issue_at 683
mem_inter_issue_at 684
mem_inter_issue_at 684
mem_inter_issue_at 684
mem_inter_issue_at 685
mem_inter_issue_at 685
mem_inter_issue_at 685
mem_inter_issue_at 686
mem_inter_issue_at 686
mem_inter_issue_at 687
mem_inter_issue_at 687
mem_inter_issue_at 688
mem_inter_issue_at 688
mem_inter_issue_at 688
mem_inter_issue_at 689
mem_inter_issue_at 689
mem_inter_issue_at 690
mem_inter_issue_at 691
mem_inter_issue_at 691
mem_inter_issue_at 692
mem_inter_issue_at 695
mem_inter_issue_at 695
mem_inter_issue_at 696
mem_inter_issue_at 696
mem_inter_issue_at 697
mem_inter_issue_at 698
mem_inter_issue_at 699
mem_inter_issue_at 700
mem_inter_issue_at 704
mem_inter_issue_at 705
mem_inter_issue_at 714
mem_inter_issue_at 715
mem_inter_issue_at 721
mem_inter_issue_at 722
mem_inter_issue_at 876
mem_inter_issue_at 877
mem_inter_issue_at 878
mem_inter_issue_at 879
mem_inter_issue_at 880
mem_inter_issue_at 881
mem_inter_issue_at 882
mem_inter_issue_at 882
mem_inter_issue_at 883
mem_inter_issue_at 883
mem_inter_issue_at 884
mem_inter_issue_at 885
mem_inter_issue_at 886
mem_inter_issue_at 887
mem_inter_issue_at 887
mem_inter_issue_at 888
mem_inter_issue_at 888
mem_inter_issue_at 888
mem_inter_issue_at 889
mem_inter_issue_at 889
mem_inter_issue_at 889
mem_inter_issue_at 890
mem_inter_issue_at 891
mem_inter_issue_at 892
mem_inter_issue_at 892
mem_inter_issue_at 893
mem_inter_issue_at 893
mem_inter_issue_at 893
mem_inter_issue_at 893
mem_inter_issue_at 894
mem_inter_issue_at 894
mem_inter_issue_at 894
mem_inter_issue_at 894
mem_inter_issue_at 895
mem_inter_issue_at 895
mem_inter_issue_at 895
mem_inter_issue_at 895
mem_inter_issue_at 896
mem_inter_issue_at 896
mem_inter_issue_at 897
mem_inter_issue_at 897
mem_inter_issue_at 897
mem_inter_issue_at 898
mem_inter_issue_at 898
mem_inter_issue_at 898
mem_inter_issue_at 898
mem_inter_issue_at 899
mem_inter_issue_at 899
mem_inter_issue_at 899
mem_inter_issue_at 899
mem_inter_issue_at 900
mem_inter_issue_at 900
mem_inter_issue_at 900
mem_inter_issue_at 900
mem_inter_issue_at 900
mem_inter_issue_at 901
mem_inter_issue_at 901
mem_inter_issue_at 901
mem_inter_issue_at 901
mem_inter_issue_at 901
mem_inter_issue_at 901
mem_inter_issue_at 901
mem_inter_issue_at 902
mem_inter_issue_at 902
mem_inter_issue_at 902
mem_inter_issue_at 902
mem_inter_issue_at 903
mem_inter_issue_at 903
mem_inter_issue_at 903
mem_inter_issue_at 903
mem_inter_issue_at 904
mem_inter_issue_at 904
mem_inter_issue_at 904
mem_inter_issue_at 904
mem_inter_issue_at 904
mem_inter_issue_at 905
mem_inter_issue_at 905
mem_inter_issue_at 905
mem_inter_issue_at 905
mem_inter_issue_at 905
mem_inter_issue_at 905
mem_inter_issue_at 906
mem_inter_issue_at 906
mem_inter_issue_at 906
mem_inter_issue_at 906
mem_inter_issue_at 906
mem_inter_issue_at 906
mem_inter_issue_at 906
mem_inter_issue_at 907
mem_inter_issue_at 907
mem_inter_issue_at 907
mem_inter_issue_at 907
mem_inter_issue_at 907
mem_inter_issue_at 907
mem_inter_issue_at 907
mem_inter_issue_at 907
mem_inter_issue_at 907
mem_inter_issue_at 908
mem_inter_issue_at 908
mem_inter_issue_at 908
mem_inter_issue_at 908
mem_inter_issue_at 909
mem_inter_issue_at 909
mem_inter_issue_at 909
mem_inter_issue_at 909
mem_inter_issue_at 909
mem_inter_issue_at 910
mem_inter_issue_at 910
mem_inter_issue_at 910
mem_inter_issue_at 910
mem_inter_issue_at 910
mem_inter_issue_at 911
mem_inter_issue_at 911
mem_inter_issue_at 911
mem_inter_issue_at 911
mem_inter_issue_at 911
mem_inter_issue_at 911
mem_inter_issue_at 911
mem_inter_issue_at 911
mem_inter_issue_at 912
mem_inter_issue_at 912
mem_inter_issue_at 912
mem_inter_issue_at 912
mem_inter_issue_at 912
mem_inter_issue_at 912
mem_inter_issue_at 912
mem_inter_issue_at 912
mem_inter_issue_at 912
mem_inter_issue_at 913
mem_inter_issue_at 913
mem_inter_issue_at 913
mem_inter_issue_at 913
mem_inter_issue_at 913
mem_inter_issue_at 913
mem_inter_issue_at 913
mem_inter_issue_at 913
mem_inter_issue_at 914
mem_inter_issue_at 914
mem_inter_issue_at 914
mem_inter_issue_at 914
mem_inter_issue_at 914
mem_inter_issue_at 915
mem_inter_issue_at 915
mem_inter_issue_at 915
mem_inter_issue_at 915
mem_inter_issue_at 915
mem_inter_issue_at 915
mem_inter_issue_at 916
mem_inter_issue_at 916
mem_inter_issue_at 916
mem_inter_issue_at 916
mem_inter_issue_at 916
mem_inter_issue_at 917
mem_inter_issue_at 917
mem_inter_issue_at 917
mem_inter_issue_at 917
mem_inter_issue_at 917
mem_inter_issue_at 917
mem_inter_issue_at 917
mem_inter_issue_at 918
mem_inter_issue_at 918
mem_inter_issue_at 918
mem_inter_issue_at 918
mem_inter_issue_at 918
mem_inter_issue_at 918
mem_inter_issue_at 918
mem_inter_issue_at 918
mem_inter_issue_at 919
mem_inter_issue_at 919
mem_inter_issue_at 919
mem_inter_issue_at 919
mem_inter_issue_at 919
mem_inter_issue_at 919
mem_inter_issue_at 919
mem_inter_issue_at 919
mem_inter_issue_at 919
mem_inter_issue_at 920
mem_inter_issue_at 920
mem_inter_issue_at 920
mem_inter_issue_at 920
mem_inter_issue_at 920
mem_inter_issue_at 920
mem_inter_issue_at 921
mem_inter_issue_at 921
mem_inter_issue_at 921
mem_inter_issue_at 921
mem_inter_issue_at 921
mem_inter_issue_at 921
mem_inter_issue_at 921
mem_inter_issue_at 922
mem_inter_issue_at 922
mem_inter_issue_at 922
mem_inter_issue_at 922
mem_inter_issue_at 922
mem_inter_issue_at 922
mem_inter_issue_at 922
mem_inter_issue_at 923
mem_inter_issue_at 923
mem_inter_issue_at 923
mem_inter_issue_at 923
mem_inter_issue_at 923
mem_inter_issue_at 923
mem_inter_issue_at 923
mem_inter_issue_at 924
mem_inter_issue_at 924
mem_inter_issue_at 924
mem_inter_issue_at 924
mem_inter_issue_at 924
mem_inter_issue_at 924
mem_inter_issue_at 924
mem_inter_issue_at 925
mem_inter_issue_at 925
mem_inter_issue_at 925
mem_inter_issue_at 925
mem_inter_issue_at 925
mem_inter_issue_at 925
mem_inter_issue_at 925
mem_inter_issue_at 925
mem_inter_issue_at 925
mem_inter_issue_at 925
mem_inter_issue_at 926
mem_inter_issue_at 926
mem_inter_issue_at 926
mem_inter_issue_at 926
mem_inter_issue_at 926
mem_inter_issue_at 926
mem_inter_issue_at 927
mem_inter_issue_at 927
mem_inter_issue_at 927
mem_inter_issue_at 927
mem_inter_issue_at 927
mem_inter_issue_at 927
mem_inter_issue_at 928
mem_inter_issue_at 928
mem_inter_issue_at 928
mem_inter_issue_at 928
mem_inter_issue_at 928
mem_inter_issue_at 929
mem_inter_issue_at 929
mem_inter_issue_at 929
mem_inter_issue_at 929
mem_inter_issue_at 929
mem_inter_issue_at 929
mem_inter_issue_at 929
mem_inter_issue_at 930
mem_inter_issue_at 930
mem_inter_issue_at 930
mem_inter_issue_at 930
mem_inter_issue_at 930
mem_inter_issue_at 930
mem_inter_issue_at 930
mem_inter_issue_at 930
mem_inter_issue_at 930
mem_inter_issue_at 931
mem_inter_issue_at 931
mem_inter_issue_at 931
mem_inter_issue_at 931
mem_inter_issue_at 931
mem_inter_issue_at 931
mem_inter_issue_at 931
mem_inter_issue_at 931
mem_inter_issue_at 931
mem_inter_issue_at 932
mem_inter_issue_at 932
mem_inter_issue_at 932
mem_inter_issue_at 932
mem_inter_issue_at 932
mem_inter_issue_at 932
mem_inter_issue_at 933
mem_inter_issue_at 933
mem_inter_issue_at 933
mem_inter_issue_at 933
mem_inter_issue_at 933
mem_inter_issue_at 934
mem_inter_issue_at 934
mem_inter_issue_at 934
mem_inter_issue_at 934
mem_inter_issue_at 934
mem_inter_issue_at 935
mem_inter_issue_at 935
mem_inter_issue_at 935
mem_inter_issue_at 935
mem_inter_issue_at 935
mem_inter_issue_at 935
mem_inter_issue_at 935
mem_inter_issue_at 935
mem_inter_issue_at 935
mem_inter_issue_at 936
mem_inter_issue_at 936
mem_inter_issue_at 936
mem_inter_issue_at 936
mem_inter_issue_at 936
mem_inter_issue_at 936
mem_inter_issue_at 936
mem_inter_issue_at 936
mem_inter_issue_at 936
mem_inter_issue_at 937
mem_inter_issue_at 937
mem_inter_issue_at 937
mem_inter_issue_at 937
mem_inter_issue_at 937
mem_inter_issue_at 937
mem_inter_issue_at 937
mem_inter_issue_at 937
mem_inter_issue_at 938
mem_inter_issue_at 938
mem_inter_issue_at 938
mem_inter_issue_at 938
mem_inter_issue_at 938
mem_inter_issue_at 939
mem_inter_issue_at 939
mem_inter_issue_at 939
mem_inter_issue_at 939
mem_inter_issue_at 939
mem_inter_issue_at 939
mem_inter_issue_at 939
mem_inter_issue_at 940
mem_inter_issue_at 940
mem_inter_issue_at 940
mem_inter_issue_at 940
mem_inter_issue_at 940
mem_inter_issue_at 940
mem_inter_issue_at 940
mem_inter_issue_at 941
mem_inter_issue_at 941
mem_inter_issue_at 941
mem_inter_issue_at 941
mem_inter_issue_at 941
mem_inter_issue_at 941
mem_inter_issue_at 942
mem_inter_issue_at 942
mem_inter_issue_at 942
mem_inter_issue_at 942
mem_inter_issue_at 942
mem_inter_issue_at 942
mem_inter_issue_at 942
mem_inter_issue_at 943
mem_inter_issue_at 943
mem_inter_issue_at 943
mem_inter_issue_at 943
mem_inter_issue_at 943
mem_inter_issue_at 943
mem_inter_issue_at 943
mem_inter_issue_at 943
mem_inter_issue_at 943
mem_inter_issue_at 944
mem_inter_issue_at 944
mem_inter_issue_at 944
mem_inter_issue_at 944
mem_inter_issue_at 944
mem_inter_issue_at 944
mem_inter_issue_at 944
mem_inter_issue_at 945
mem_inter_issue_at 945
mem_inter_issue_at 945
mem_inter_issue_at 945
mem_inter_issue_at 945
mem_inter_issue_at 945
mem_inter_issue_at 946
mem_inter_issue_at 946
mem_inter_issue_at 946
mem_inter_issue_at 946
mem_inter_issue_at 946
mem_inter_issue_at 946
mem_inter_issue_at 947
mem_inter_issue_at 947
mem_inter_issue_at 947
mem_inter_issue_at 947
mem_inter_issue_at 947
mem_inter_issue_at 947
mem_inter_issue_at 947
mem_inter_issue_at 947
mem_inter_issue_at 947
mem_inter_issue_at 948
mem_inter_issue_at 948
mem_inter_issue_at 948
mem_inter_issue_at 948
mem_inter_issue_at 948
mem_inter_issue_at 948
mem_inter_issue_at 948
mem_inter_issue_at 948
mem_inter_issue_at 948
mem_inter_issue_at 948
mem_inter_issue_at 949
mem_inter_issue_at 949
mem_inter_issue_at 949
mem_inter_issue_at 949
mem_inter_issue_at 949
mem_inter_issue_at 949
mem_inter_issue_at 949
mem_inter_issue_at 949
mem_inter_issue_at 949
mem_inter_issue_at 949
mem_inter_issue_at 950
mem_inter_issue_at 950
mem_inter_issue_at 950
mem_inter_issue_at 950
mem_inter_issue_at 950
mem_inter_issue_at 951
mem_inter_issue_at 951
mem_inter_issue_at 951
mem_inter_issue_at 951
mem_inter_issue_at 951
mem_inter_issue_at 951
mem_inter_issue_at 952
mem_inter_issue_at 952
mem_inter_issue_at 952
mem_inter_issue_at 952
mem_inter_issue_at 952
mem_inter_issue_at 952
mem_inter_issue_at 952
mem_inter_issue_at 953
mem_inter_issue_at 953
mem_inter_issue_at 953
mem_inter_issue_at 953
mem_inter_issue_at 953
mem_inter_issue_at 953
mem_inter_issue_at 953
mem_inter_issue_at 954
mem_inter_issue_at 954
mem_inter_issue_at 954
mem_inter_issue_at 954
mem_inter_issue_at 954
mem_inter_issue_at 954
mem_inter_issue_at 954
mem_inter_issue_at 954
mem_inter_issue_at 955
mem_inter_issue_at 955
mem_inter_issue_at 955
mem_inter_issue_at 955
mem_inter_issue_at 955
mem_inter_issue_at 955
mem_inter_issue_at 955
mem_inter_issue_at 955
mem_inter_issue_at 955
mem_inter_issue_at 956
mem_inter_issue_at 956
mem_inter_issue_at 956
mem_inter_issue_at 956
mem_inter_issue_at 956
mem_inter_issue_at 957
mem_inter_issue_at 957
mem_inter_issue_at 957
mem_inter_issue_at 957
mem_inter_issue_at 957
mem_inter_issue_at 957
mem_inter_issue_at 957
mem_inter_issue_at 958
mem_inter_issue_at 958
mem_inter_issue_at 958
mem_inter_issue_at 958
mem_inter_issue_at 958
mem_inter_issue_at 959
mem_inter_issue_at 959
mem_inter_issue_at 959
mem_inter_issue_at 959
mem_inter_issue_at 959
mem_inter_issue_at 959
mem_inter_issue_at 959
mem_inter_issue_at 960
mem_inter_issue_at 960
mem_inter_issue_at 960
mem_inter_issue_at 960
mem_inter_issue_at 960
mem_inter_issue_at 960
mem_inter_issue_at 960
mem_inter_issue_at 960
mem_inter_issue_at 961
mem_inter_issue_at 961
mem_inter_issue_at 961
mem_inter_issue_at 961
mem_inter_issue_at 961
mem_inter_issue_at 961
mem_inter_issue_at 961
mem_inter_issue_at 961
mem_inter_issue_at 961
mem_inter_issue_at 962
mem_inter_issue_at 962
mem_inter_issue_at 962
mem_inter_issue_at 962
mem_inter_issue_at 962
mem_inter_issue_at 962
mem_inter_issue_at 963
mem_inter_issue_at 963
mem_inter_issue_at 963
mem_inter_issue_at 963
mem_inter_issue_at 963
mem_inter_issue_at 964
mem_inter_issue_at 964
mem_inter_issue_at 964
mem_inter_issue_at 964
mem_inter_issue_at 964
mem_inter_issue_at 964
mem_inter_issue_at 965
mem_inter_issue_at 965
mem_inter_issue_at 965
mem_inter_issue_at 965
mem_inter_issue_at 965
mem_inter_issue_at 965
mem_inter_issue_at 965
mem_inter_issue_at 966
mem_inter_issue_at 966
mem_inter_issue_at 966
mem_inter_issue_at 966
mem_inter_issue_at 966
mem_inter_issue_at 966
mem_inter_issue_at 966
mem_inter_issue_at 966
mem_inter_issue_at 967
mem_inter_issue_at 967
mem_inter_issue_at 967
mem_inter_issue_at 967
mem_inter_issue_at 967
mem_inter_issue_at 967
mem_inter_issue_at 967
mem_inter_issue_at 967
mem_inter_issue_at 968
mem_inter_issue_at 968
mem_inter_issue_at 968
mem_inter_issue_at 968
mem_inter_issue_at 968
mem_inter_issue_at 969
mem_inter_issue_at 969
mem_inter_issue_at 969
mem_inter_issue_at 969
mem_inter_issue_at 969
mem_inter_issue_at 969
mem_inter_issue_at 970
mem_inter_issue_at 970
mem_inter_issue_at 970
mem_inter_issue_at 970
mem_inter_issue_at 970
mem_inter_issue_at 971
mem_inter_issue_at 971
mem_inter_issue_at 971
mem_inter_issue_at 971
mem_inter_issue_at 971
mem_inter_issue_at 971
mem_inter_issue_at 971
mem_inter_issue_at 972
mem_inter_issue_at 972
mem_inter_issue_at 972
mem_inter_issue_at 972
mem_inter_issue_at 972
mem_inter_issue_at 972
mem_inter_issue_at 973
mem_inter_issue_at 973
mem_inter_issue_at 973
mem_inter_issue_at 973
mem_inter_issue_at 973
mem_inter_issue_at 973
mem_inter_issue_at 973
mem_inter_issue_at 974
mem_inter_issue_at 974
mem_inter_issue_at 974
mem_inter_issue_at 974
mem_inter_issue_at 974
mem_inter_issue_at 975
mem_inter_issue_at 975
mem_inter_issue_at 975
mem_inter_issue_at 975
mem_inter_issue_at 975
mem_inter_issue_at 976
mem_inter_issue_at 976
mem_inter_issue_at 976
mem_inter_issue_at 976
mem_inter_issue_at 976
mem_inter_issue_at 976
mem_inter_issue_at 976
mem_inter_issue_at 977
mem_inter_issue_at 977
mem_inter_issue_at 977
mem_inter_issue_at 977
mem_inter_issue_at 977
mem_inter_issue_at 977
mem_inter_issue_at 977
mem_inter_issue_at 978
mem_inter_issue_at 978
mem_inter_issue_at 978
mem_inter_issue_at 978
mem_inter_issue_at 978
mem_inter_issue_at 978
mem_inter_issue_at 979
mem_inter_issue_at 979
mem_inter_issue_at 979
mem_inter_issue_at 979
mem_inter_issue_at 979
mem_inter_issue_at 979
mem_inter_issue_at 979
mem_inter_issue_at 980
mem_inter_issue_at 980
mem_inter_issue_at 980
mem_inter_issue_at 980
mem_inter_issue_at 981
mem_inter_issue_at 981
mem_inter_issue_at 981
mem_inter_issue_at 981
mem_inter_issue_at 981
mem_inter_issue_at 982
mem_inter_issue_at 982
mem_inter_issue_at 982
mem_inter_issue_at 982
mem_inter_issue_at 983
mem_inter_issue_at 983
mem_inter_issue_at 983
mem_inter_issue_at 983
mem_inter_issue_at 984
mem_inter_issue_at 984
mem_inter_issue_at 984
mem_inter_issue_at 984
mem_inter_issue_at 984
mem_inter_issue_at 984
mem_inter_issue_at 985
mem_inter_issue_at 985
mem_inter_issue_at 985
mem_inter_issue_at 985
mem_inter_issue_at 985
mem_inter_issue_at 985
mem_inter_issue_at 986
mem_inter_issue_at 986
mem_inter_issue_at 986
mem_inter_issue_at 986
mem_inter_issue_at 987
mem_inter_issue_at 987
mem_inter_issue_at 988
mem_inter_issue_at 988
mem_inter_issue_at 989
mem_inter_issue_at 989
mem_inter_issue_at 989
mem_inter_issue_at 990
mem_inter_issue_at 990
mem_inter_issue_at 990
mem_inter_issue_at 990
mem_inter_issue_at 991
mem_inter_issue_at 991
mem_inter_issue_at 992
mem_inter_issue_at 992
mem_inter_issue_at 993
mem_inter_issue_at 993
mem_inter_issue_at 994
mem_inter_issue_at 994
mem_inter_issue_at 996
mem_inter_issue_at 997
mem_inter_issue_at 998
mem_inter_issue_at 1001
mem_inter_issue_at 1002
mem_inter_issue_at 1003
mem_inter_issue_at 1003
mem_inter_issue_at 1004
mem_inter_issue_at 1005
mem_inter_issue_at 1009
mem_inter_issue_at 1010
mem_inter_issue_at 1011
mem_inter_issue_at 1011
mem_inter_issue_at 1012
mem_inter_issue_at 1013
mem_inter_issue_at 1018
mem_inter_issue_at 1020
mem_inter_issue_at 1190
mem_inter_issue_at 1191
mem_inter_issue_at 1194
mem_inter_issue_at 1195
mem_inter_issue_at 1196
mem_inter_issue_at 1196
mem_inter_issue_at 1197
mem_inter_issue_at 1197
mem_inter_issue_at 1198
mem_inter_issue_at 1198
mem_inter_issue_at 1199
mem_inter_issue_at 1199
mem_inter_issue_at 1200
mem_inter_issue_at 1200
mem_inter_issue_at 1200
mem_inter_issue_at 1201
mem_inter_issue_at 1201
mem_inter_issue_at 1201
mem_inter_issue_at 1202
mem_inter_issue_at 1203
mem_inter_issue_at 1203
mem_inter_issue_at 1204
mem_inter_issue_at 1205
mem_inter_issue_at 1205
mem_inter_issue_at 1205
mem_inter_issue_at 1206
mem_inter_issue_at 1206
mem_inter_issue_at 1206
mem_inter_issue_at 1207
mem_inter_issue_at 1207
mem_inter_issue_at 1207
mem_inter_issue_at 1207
mem_inter_issue_at 1207
mem_inter_issue_at 1208
mem_inter_issue_at 1208
mem_inter_issue_at 1208
mem_inter_issue_at 1208
mem_inter_issue_at 1208
mem_inter_issue_at 1209
mem_inter_issue_at 1209
mem_inter_issue_at 1209
mem_inter_issue_at 1209
mem_inter_issue_at 1209
mem_inter_issue_at 1210
mem_inter_issue_at 1210
mem_inter_issue_at 1211
mem_inter_issue_at 1211
mem_inter_issue_at 1211
mem_inter_issue_at 1211
mem_inter_issue_at 1212
mem_inter_issue_at 1212
mem_inter_issue_at 1212
mem_inter_issue_at 1212
mem_inter_issue_at 1212
mem_inter_issue_at 1212
mem_inter_issue_at 1212
mem_inter_issue_at 1213
mem_inter_issue_at 1213
mem_inter_issue_at 1213
mem_inter_issue_at 1213
mem_inter_issue_at 1213
mem_inter_issue_at 1213
mem_inter_issue_at 1214
mem_inter_issue_at 1214
mem_inter_issue_at 1214
mem_inter_issue_at 1214
mem_inter_issue_at 1214
mem_inter_issue_at 1214
mem_inter_issue_at 1214
mem_inter_issue_at 1215
mem_inter_issue_at 1215
mem_inter_issue_at 1215
mem_inter_issue_at 1215
mem_inter_issue_at 1215
mem_inter_issue_at 1215
mem_inter_issue_at 1216
mem_inter_issue_at 1216
mem_inter_issue_at 1216
mem_inter_issue_at 1216
mem_inter_issue_at 1216
mem_inter_issue_at 1217
mem_inter_issue_at 1217
mem_inter_issue_at 1217
mem_inter_issue_at 1217
mem_inter_issue_at 1218
mem_inter_issue_at 1218
mem_inter_issue_at 1218
mem_inter_issue_at 1218
mem_inter_issue_at 1218
mem_inter_issue_at 1219
mem_inter_issue_at 1219
mem_inter_issue_at 1219
mem_inter_issue_at 1219
mem_inter_issue_at 1219
mem_inter_issue_at 1219
mem_inter_issue_at 1219
mem_inter_issue_at 1220
mem_inter_issue_at 1220
mem_inter_issue_at 1220
mem_inter_issue_at 1220
mem_inter_issue_at 1220
mem_inter_issue_at 1220
mem_inter_issue_at 1220
mem_inter_issue_at 1221
mem_inter_issue_at 1221
mem_inter_issue_at 1221
mem_inter_issue_at 1221
mem_inter_issue_at 1221
mem_inter_issue_at 1221
mem_inter_issue_at 1222
mem_inter_issue_at 1222
mem_inter_issue_at 1222
mem_inter_issue_at 1222
mem_inter_issue_at 1222
mem_inter_issue_at 1222
mem_inter_issue_at 1222
mem_inter_issue_at 1223
mem_inter_issue_at 1223
mem_inter_issue_at 1223
mem_inter_issue_at 1223
mem_inter_issue_at 1223
mem_inter_issue_at 1223
mem_inter_issue_at 1223
mem_inter_issue_at 1224
mem_inter_issue_at 1224
mem_inter_issue_at 1224
mem_inter_issue_at 1224
mem_inter_issue_at 1224
mem_inter_issue_at 1225
mem_inter_issue_at 1225
mem_inter_issue_at 1225
mem_inter_issue_at 1225
mem_inter_issue_at 1225
mem_inter_issue_at 1225
mem_inter_issue_at 1226
mem_inter_issue_at 1226
mem_inter_issue_at 1226
mem_inter_issue_at 1226
mem_inter_issue_at 1226
mem_inter_issue_at 1226
mem_inter_issue_at 1227
mem_inter_issue_at 1227
mem_inter_issue_at 1227
mem_inter_issue_at 1227
mem_inter_issue_at 1227
mem_inter_issue_at 1227
mem_inter_issue_at 1227
mem_inter_issue_at 1228
mem_inter_issue_at 1228
mem_inter_issue_at 1228
mem_inter_issue_at 1228
mem_inter_issue_at 1228
mem_inter_issue_at 1229
mem_inter_issue_at 1229
mem_inter_issue_at 1229
mem_inter_issue_at 1229
mem_inter_issue_at 1229
mem_inter_issue_at 1229
mem_inter_issue_at 1229
mem_inter_issue_at 1230
mem_inter_issue_at 1230
mem_inter_issue_at 1230
mem_inter_issue_at 1230
mem_inter_issue_at 1230
mem_inter_issue_at 1230
mem_inter_issue_at 1231
mem_inter_issue_at 1231
mem_inter_issue_at 1231
mem_inter_issue_at 1231
mem_inter_issue_at 1231
mem_inter_issue_at 1231
mem_inter_issue_at 1231
mem_inter_issue_at 1231
mem_inter_issue_at 1231
mem_inter_issue_at 1232
mem_inter_issue_at 1232
mem_inter_issue_at 1232
mem_inter_issue_at 1232
mem_inter_issue_at 1232
mem_inter_issue_at 1232
mem_inter_issue_at 1233
mem_inter_issue_at 1233
mem_inter_issue_at 1233
mem_inter_issue_at 1233
mem_inter_issue_at 1233
mem_inter_issue_at 1233
mem_inter_issue_at 1233
mem_inter_issue_at 1233
mem_inter_issue_at 1234
mem_inter_issue_at 1234
mem_inter_issue_at 1234
mem_inter_issue_at 1234
mem_inter_issue_at 1234
mem_inter_issue_at 1235
mem_inter_issue_at 1235
mem_inter_issue_at 1235
mem_inter_issue_at 1235
mem_inter_issue_at 1235
mem_inter_issue_at 1235
mem_inter_issue_at 1235
mem_inter_issue_at 1236
mem_inter_issue_at 1236
mem_inter_issue_at 1236
mem_inter_issue_at 1236
mem_inter_issue_at 1237
mem_inter_issue_at 1237
mem_inter_issue_at 1237
mem_inter_issue_at 1237
mem_inter_issue_at 1237
mem_inter_issue_at 1237
mem_inter_issue_at 1238
mem_inter_issue_at 1238
mem_inter_issue_at 1238
mem_inter_issue_at 1238
mem_inter_issue_at 1238
mem_inter_issue_at 1238
mem_inter_issue_at 1239
mem_inter_issue_at 1239
mem_inter_issue_at 1239
mem_inter_issue_at 1239
mem_inter_issue_at 1239
mem_inter_issue_at 1240
mem_inter_issue_at 1240
mem_inter_issue_at 1240
mem_inter_issue_at 1240
mem_inter_issue_at 1240
mem_inter_issue_at 1240
mem_inter_issue_at 1240
mem_inter_issue_at 1241
mem_inter_issue_at 1241
mem_inter_issue_at 1241
mem_inter_issue_at 1241
mem_inter_issue_at 1241
mem_inter_issue_at 1241
mem_inter_issue_at 1241
mem_inter_issue_at 1241
mem_inter_issue_at 1242
mem_inter_issue_at 1242
mem_inter_issue_at 1242
mem_inter_issue_at 1242
mem_inter_issue_at 1242
mem_inter_issue_at 1242
mem_inter_issue_at 1243
mem_inter_issue_at 1243
mem_inter_issue_at 1243
mem_inter_issue_at 1243
mem_inter_issue_at 1244
mem_inter_issue_at 1244
mem_inter_issue_at 1244
mem_inter_issue_at 1244
mem_inter_issue_at 1244
mem_inter_issue_at 1244
mem_inter_issue_at 1244
mem_inter_issue_at 1245
mem_inter_issue_at 1245
mem_inter_issue_at 1245
mem_inter_issue_at 1245
mem_inter_issue_at 1245
mem_inter_issue_at 1245
mem_inter_issue_at 1245
mem_inter_issue_at 1245
mem_inter_issue_at 1245
mem_inter_issue_at 1246
mem_inter_issue_at 1246
mem_inter_issue_at 1246
mem_inter_issue_at 1247
mem_inter_issue_at 1247
mem_inter_issue_at 1247
mem_inter_issue_at 1247
mem_inter_issue_at 1247
mem_inter_issue_at 1248
mem_inter_issue_at 1248
mem_inter_issue_at 1248
mem_inter_issue_at 1248
mem_inter_issue_at 1248
mem_inter_issue_at 1248
mem_inter_issue_at 1249
mem_inter_issue_at 1249
mem_inter_issue_at 1249
mem_inter_issue_at 1249
mem_inter_issue_at 1249
mem_inter_issue_at 1249
mem_inter_issue_at 1249
mem_inter_issue_at 1250
mem_inter_issue_at 1250
mem_inter_issue_at 1250
mem_inter_issue_at 1250
mem_inter_issue_at 1250
mem_inter_issue_at 1250
mem_inter_issue_at 1250
mem_inter_issue_at 1250
mem_inter_issue_at 1250
mem_inter_issue_at 1250
mem_inter_issue_at 1251
mem_inter_issue_at 1251
mem_inter_issue_at 1251
mem_inter_issue_at 1251
mem_inter_issue_at 1251
mem_inter_issue_at 1251
mem_inter_issue_at 1251
mem_inter_issue_at 1252
mem_inter_issue_at 1252
mem_inter_issue_at 1252
mem_inter_issue_at 1252
mem_inter_issue_at 1253
mem_inter_issue_at 1253
mem_inter_issue_at 1253
mem_inter_issue_at 1253
GPGPU-Sim PTX: 100000 instructions simulated : ctaid=(7,0,0) tid=(223,0,0)
mem_inter_issue_at 1253
mem_inter_issue_at 1253
mem_inter_issue_at 1253
mem_inter_issue_at 1254
mem_inter_issue_at 1254
mem_inter_issue_at 1254
mem_inter_issue_at 1254
mem_inter_issue_at 1254
mem_inter_issue_at 1254
mem_inter_issue_at 1255
mem_inter_issue_at 1255
mem_inter_issue_at 1255
mem_inter_issue_at 1255
mem_inter_issue_at 1255
mem_inter_issue_at 1255
mem_inter_issue_at 1255
mem_inter_issue_at 1255
mem_inter_issue_at 1255
mem_inter_issue_at 1256
mem_inter_issue_at 1256
mem_inter_issue_at 1256
mem_inter_issue_at 1256
mem_inter_issue_at 1256
mem_inter_issue_at 1256
mem_inter_issue_at 1256
mem_inter_issue_at 1256
mem_inter_issue_at 1257
mem_inter_issue_at 1257
mem_inter_issue_at 1257
mem_inter_issue_at 1257
mem_inter_issue_at 1257
mem_inter_issue_at 1257
mem_inter_issue_at 1258
mem_inter_issue_at 1258
mem_inter_issue_at 1258
mem_inter_issue_at 1258
mem_inter_issue_at 1258
mem_inter_issue_at 1258
mem_inter_issue_at 1258
mem_inter_issue_at 1259
mem_inter_issue_at 1259
mem_inter_issue_at 1259
mem_inter_issue_at 1259
mem_inter_issue_at 1259
mem_inter_issue_at 1259
mem_inter_issue_at 1259
mem_inter_issue_at 1259
mem_inter_issue_at 1259
mem_inter_issue_at 1260
mem_inter_issue_at 1260
mem_inter_issue_at 1260
mem_inter_issue_at 1260
mem_inter_issue_at 1260
mem_inter_issue_at 1260
mem_inter_issue_at 1260
mem_inter_issue_at 1260
mem_inter_issue_at 1261
mem_inter_issue_at 1261
mem_inter_issue_at 1261
mem_inter_issue_at 1261
mem_inter_issue_at 1261
mem_inter_issue_at 1261
mem_inter_issue_at 1261
mem_inter_issue_at 1261
mem_inter_issue_at 1261
mem_inter_issue_at 1262
mem_inter_issue_at 1262
mem_inter_issue_at 1262
mem_inter_issue_at 1262
mem_inter_issue_at 1262
mem_inter_issue_at 1262
mem_inter_issue_at 1262
mem_inter_issue_at 1262
mem_inter_issue_at 1263
mem_inter_issue_at 1263
mem_inter_issue_at 1263
mem_inter_issue_at 1263
mem_inter_issue_at 1263
mem_inter_issue_at 1263
mem_inter_issue_at 1263
mem_inter_issue_at 1264
mem_inter_issue_at 1264
mem_inter_issue_at 1264
mem_inter_issue_at 1264
mem_inter_issue_at 1264
mem_inter_issue_at 1264
mem_inter_issue_at 1264
mem_inter_issue_at 1264
mem_inter_issue_at 1265
mem_inter_issue_at 1265
mem_inter_issue_at 1265
mem_inter_issue_at 1265
mem_inter_issue_at 1265
mem_inter_issue_at 1265
mem_inter_issue_at 1265
mem_inter_issue_at 1265
mem_inter_issue_at 1265
mem_inter_issue_at 1265
mem_inter_issue_at 1266
mem_inter_issue_at 1266
mem_inter_issue_at 1266
mem_inter_issue_at 1266
mem_inter_issue_at 1266
mem_inter_issue_at 1266
mem_inter_issue_at 1266
mem_inter_issue_at 1266
mem_inter_issue_at 1266
mem_inter_issue_at 1266
mem_inter_issue_at 1266
mem_inter_issue_at 1266
mem_inter_issue_at 1267
mem_inter_issue_at 1267
mem_inter_issue_at 1267
mem_inter_issue_at 1267
mem_inter_issue_at 1267
mem_inter_issue_at 1267
mem_inter_issue_at 1267
mem_inter_issue_at 1267
mem_inter_issue_at 1267
mem_inter_issue_at 1267
mem_inter_issue_at 1267
mem_inter_issue_at 1268
mem_inter_issue_at 1268
mem_inter_issue_at 1268
mem_inter_issue_at 1268
mem_inter_issue_at 1268
mem_inter_issue_at 1268
mem_inter_issue_at 1268
mem_inter_issue_at 1268
mem_inter_issue_at 1268
mem_inter_issue_at 1269
mem_inter_issue_at 1269
mem_inter_issue_at 1269
mem_inter_issue_at 1269
mem_inter_issue_at 1269
mem_inter_issue_at 1269
mem_inter_issue_at 1269
mem_inter_issue_at 1269
mem_inter_issue_at 1270
mem_inter_issue_at 1270
mem_inter_issue_at 1270
mem_inter_issue_at 1270
mem_inter_issue_at 1270
mem_inter_issue_at 1271
mem_inter_issue_at 1271
mem_inter_issue_at 1271
mem_inter_issue_at 1271
mem_inter_issue_at 1271
mem_inter_issue_at 1271
mem_inter_issue_at 1271
mem_inter_issue_at 1272
mem_inter_issue_at 1272
mem_inter_issue_at 1272
mem_inter_issue_at 1272
mem_inter_issue_at 1272
mem_inter_issue_at 1272
mem_inter_issue_at 1273
mem_inter_issue_at 1273
mem_inter_issue_at 1273
mem_inter_issue_at 1273
mem_inter_issue_at 1273
mem_inter_issue_at 1273
mem_inter_issue_at 1273
mem_inter_issue_at 1273
mem_inter_issue_at 1273
mem_inter_issue_at 1273
mem_inter_issue_at 1273
mem_inter_issue_at 1273
mem_inter_issue_at 1274
mem_inter_issue_at 1274
mem_inter_issue_at 1274
mem_inter_issue_at 1274
mem_inter_issue_at 1274
mem_inter_issue_at 1274
mem_inter_issue_at 1274
mem_inter_issue_at 1274
mem_inter_issue_at 1274
mem_inter_issue_at 1274
mem_inter_issue_at 1275
mem_inter_issue_at 1275
mem_inter_issue_at 1275
mem_inter_issue_at 1275
mem_inter_issue_at 1275
mem_inter_issue_at 1275
mem_inter_issue_at 1275
mem_inter_issue_at 1275
mem_inter_issue_at 1276
mem_inter_issue_at 1276
mem_inter_issue_at 1276
mem_inter_issue_at 1276
mem_inter_issue_at 1276
mem_inter_issue_at 1276
mem_inter_issue_at 1277
mem_inter_issue_at 1277
mem_inter_issue_at 1277
mem_inter_issue_at 1277
mem_inter_issue_at 1277
mem_inter_issue_at 1277
mem_inter_issue_at 1277
mem_inter_issue_at 1277
mem_inter_issue_at 1277
mem_inter_issue_at 1277
mem_inter_issue_at 1278
mem_inter_issue_at 1278
mem_inter_issue_at 1278
mem_inter_issue_at 1278
mem_inter_issue_at 1278
mem_inter_issue_at 1278
mem_inter_issue_at 1278
mem_inter_issue_at 1279
mem_inter_issue_at 1279
mem_inter_issue_at 1279
mem_inter_issue_at 1279
mem_inter_issue_at 1279
mem_inter_issue_at 1279
mem_inter_issue_at 1279
mem_inter_issue_at 1279
mem_inter_issue_at 1280
mem_inter_issue_at 1280
mem_inter_issue_at 1280
mem_inter_issue_at 1280
mem_inter_issue_at 1280
mem_inter_issue_at 1280
mem_inter_issue_at 1280
mem_inter_issue_at 1281
mem_inter_issue_at 1281
mem_inter_issue_at 1281
mem_inter_issue_at 1281
mem_inter_issue_at 1281
mem_inter_issue_at 1281
mem_inter_issue_at 1281
mem_inter_issue_at 1281
mem_inter_issue_at 1281
mem_inter_issue_at 1282
mem_inter_issue_at 1282
mem_inter_issue_at 1282
mem_inter_issue_at 1282
mem_inter_issue_at 1282
mem_inter_issue_at 1282
mem_inter_issue_at 1283
mem_inter_issue_at 1283
mem_inter_issue_at 1283
mem_inter_issue_at 1283
mem_inter_issue_at 1283
mem_inter_issue_at 1283
mem_inter_issue_at 1284
mem_inter_issue_at 1284
mem_inter_issue_at 1285
mem_inter_issue_at 1285
mem_inter_issue_at 1285
mem_inter_issue_at 1285
mem_inter_issue_at 1285
mem_inter_issue_at 1286
mem_inter_issue_at 1286
mem_inter_issue_at 1286
mem_inter_issue_at 1286
mem_inter_issue_at 1286
mem_inter_issue_at 1286
mem_inter_issue_at 1286
mem_inter_issue_at 1286
mem_inter_issue_at 1287
mem_inter_issue_at 1287
mem_inter_issue_at 1287
mem_inter_issue_at 1287
mem_inter_issue_at 1287
mem_inter_issue_at 1288
mem_inter_issue_at 1288
mem_inter_issue_at 1288
mem_inter_issue_at 1288
mem_inter_issue_at 1288
mem_inter_issue_at 1288
mem_inter_issue_at 1289
mem_inter_issue_at 1289
mem_inter_issue_at 1289
mem_inter_issue_at 1289
mem_inter_issue_at 1289
mem_inter_issue_at 1289
mem_inter_issue_at 1290
mem_inter_issue_at 1290
mem_inter_issue_at 1290
mem_inter_issue_at 1291
mem_inter_issue_at 1291
mem_inter_issue_at 1291
mem_inter_issue_at 1292
mem_inter_issue_at 1293
mem_inter_issue_at 1293
mem_inter_issue_at 1293
mem_inter_issue_at 1294
mem_inter_issue_at 1294
mem_inter_issue_at 1294
mem_inter_issue_at 1294
mem_inter_issue_at 1294
mem_inter_issue_at 1295
mem_inter_issue_at 1295
mem_inter_issue_at 1296
mem_inter_issue_at 1296
mem_inter_issue_at 1297
mem_inter_issue_at 1297
mem_inter_issue_at 1298
mem_inter_issue_at 1298
mem_inter_issue_at 1299
mem_inter_issue_at 1299
mem_inter_issue_at 1301
mem_inter_issue_at 1301
mem_inter_issue_at 1301
mem_inter_issue_at 1301
mem_inter_issue_at 1301
mem_inter_issue_at 1302
mem_inter_issue_at 1305
mem_inter_issue_at 1307
mem_inter_issue_at 1309
mem_inter_issue_at 1310
mem_inter_issue_at 1487
mem_inter_issue_at 1488
mem_inter_issue_at 1489
mem_inter_issue_at 1490
mem_inter_issue_at 1491
mem_inter_issue_at 1492
mem_inter_issue_at 1493
mem_inter_issue_at 1493
mem_inter_issue_at 1494
mem_inter_issue_at 1494
mem_inter_issue_at 1495
mem_inter_issue_at 1496
mem_inter_issue_at 1497
mem_inter_issue_at 1498
mem_inter_issue_at 1499
mem_inter_issue_at 1499
mem_inter_issue_at 1500
mem_inter_issue_at 1500
GPGPU-Sim uArch: Shader 5 finished CTA #0 (1500,0), 0 CTAs running
GPGPU-Sim uArch: Shader 5 empty (release kernel 1 '_Z6KernelP4NodePiPbS2_S1_S2_i').
mem_inter_issue_at 1501
mem_inter_issue_at 1502
mem_inter_issue_at 1503
mem_inter_issue_at 1504
mem_inter_issue_at 1505
mem_inter_issue_at 1505
GPGPU-Sim uArch: Shader 2 finished CTA #0 (1506,0), 0 CTAs running
GPGPU-Sim uArch: Shader 2 empty (release kernel 1 '_Z6KernelP4NodePiPbS2_S1_S2_i').
mem_inter_issue_at 1506
mem_inter_issue_at 1506
mem_inter_issue_at 1507
mem_inter_issue_at 1508
mem_inter_issue_at 1509
mem_inter_issue_at 1510
mem_inter_issue_at 1511
mem_inter_issue_at 1511
mem_inter_issue_at 1512
[...]
gpgpu_stall_shd_mem[g_mem_ld][wb_icnt_rc] = 0
gpgpu_stall_shd_mem[g_mem_ld][wb_rsrv_fail] = 0
gpgpu_stall_shd_mem[g_mem_st][mshr_rc] = 0
gpgpu_stall_shd_mem[g_mem_st][icnt_rc] = 0
gpgpu_stall_shd_mem[g_mem_st][wb_icnt_rc] = 0
gpgpu_stall_shd_mem[g_mem_st][wb_rsrv_fail] = 0
gpgpu_stall_shd_mem[l_mem_ld][mshr_rc] = 0
gpgpu_stall_shd_mem[l_mem_ld][icnt_rc] = 0
gpgpu_stall_shd_mem[l_mem_ld][wb_icnt_rc] = 0
gpgpu_stall_shd_mem[l_mem_ld][wb_rsrv_fail] = 0
gpgpu_stall_shd_mem[l_mem_st][mshr_rc] = 0
gpgpu_stall_shd_mem[l_mem_st][icnt_rc] = 0
gpgpu_stall_shd_mem[l_mem_ld][wb_icnt_rc] = 0
gpgpu_stall_shd_mem[l_mem_ld][wb_rsrv_fail] = 0
gpu_reg_bank_conflict_stalls = 0
Warp Occupancy Distribution:
Stall:139354	W0_Idle:224907	W0_Scoreboard:321001	W1:36292	W2:16366	W3:11016	W4:7216	W5:4800	W6:3480	W7:2820	W8:2636	W9:2944	W10:2690	W11:2728	W12:3348	W13:2500	W14:2498	W15:1672	W16:1400	W17:1532	W18:790	W19:404	W20:200	W21:124	W22:108	W23:0	W24:0	W25:0	W26:0	W27:0	W28:0	W29:0	W30:0	W31:0	W32:28672
traffic_breakdown_coretomem[CONST_ACC_R] = 120 {8:15,}
traffic_breakdown_coretomem[GLOBAL_ACC_R] = 53296 {8:6662,}
traffic_breakdown_coretomem[GLOBAL_ACC_W] = 782776 {40:19384,72:18,136:45,}
traffic_breakdown_coretomem[INST_ACC_R] = 600 {8:75,}
traffic_breakdown_memtocore[CONST_ACC_R] = 1080 {72:15,}
traffic_breakdown_memtocore[GLOBAL_ACC_R] = 906032 {136:6662,}
traffic_breakdown_memtocore[GLOBAL_ACC_W] = 155576 {8:19447,}
traffic_breakdown_memtocore[INST_ACC_R] = 10200 {136:75,}
maxmrqlatency = 101 
maxdqlatency = 0 
maxmflatency = 652 
averagemflatency = 240 
max_icnt2mem_latency = 448 
max_icnt2sh_latency = 46068 
mrq_lat_table:1007 	91 	78 	92 	53 	33 	9 	0 	0 	0 	0 	0 	0 	0 	0 	0 	0 	0 	0 	0 	0 	0 	0 	0 	0 	0 	0 	0 	0 	0 	0 	0 	
dq_lat_table:0 	0 	0 	0 	0 	0 	0 	0 	0 	0 	0 	0 	0 	0 	0 	0 	0 	0 	0 	0 	0 	0 	0 	0 	0 	0 	0 	0 	0 	0 	0 	0 	
mf_lat_table:0 	0 	0 	0 	0 	0 	0 	15919 	10117 	88 	0 	0 	0 	0 	0 	0 	0 	0 	0 	0 	0 	0 	0 	0 	0 	0 	0 	0 	0 	0 	0 	0 	
icnt2mem_lat_table:0 	0 	0 	6990 	2402 	2786 	6629 	6683 	709 	0 	0 	0 	0 	0 	0 	0 	0 	0 	0 	0 	0 	0 	0 	0 	
icnt2sh_lat_table:0 	0 	0 	2190 	2602 	1566 	302 	17 	0 	0 	2 	6 	44 	1300 	15170 	2925 	0 	0 	0 	0 	0 	0 	0 	0 	
mf_lat_pw_table:0 	0 	0 	0 	0 	0 	0 	74 	20 	0 	0 	0 	0 	0 	0 	0 	0 	0 	0 	0 	0 	0 	0 	0 	0 	0 	0 	0 	0 	0 	0 	0 	
maximum concurrent accesses to same row:
dram[0]:         1         0         0         0         0         0         0         0         0         0         0         0         0         0         0         0 
dram[1]:         0         0         0         0         0         0         0         0         0         0         0         0         0         0         0         0 
dram[2]:         0         0         0         0         0         0         0         0         0         0         0         0         0         0         0         0 
dram[3]:         0         0         0         0         0         0         0         0         0         0         0         0         0         0         0         0 
dram[4]:         0         0         0         0         0         0         0         0         0         0         0         0         0         0         0         0 
dram[5]:         0         0         0         0         0         0         0         0         0         0         0         0         0         0         0         0 
maximum service time to same row:
dram[0]:       323         0         0         0       734       713       569       579       782       901      1207      1159         0         0         0         0 
dram[1]:      1812         0         0         0       569       607       576      1072      1041       906      1213      1165         0         0         0         0 
dram[2]:      1450         0         0         0       726      2104       706       713      1057       910      1219      1176         0         0         0         0 
dram[3]:         0         0         0         0       582       741       565       707       910      1037      1225      1182         0         0         0         0 
dram[4]:         0         0         0         0       563       735      2435       747       915      2784      1194      1195         0         0         0         0 
dram[5]:         0         0         0         0       565       568       576       722      1065       916      1153      1201         0         0         0         0 
average row accesses per activate:
dram[0]:  1.000000      -nan      -nan      -nan 10.000000 10.000000 32.000000 32.000000 32.000000 32.000000 40.000000 38.000000      -nan      -nan      -nan      -nan 
dram[1]:  2.000000      -nan      -nan      -nan 10.000000 10.000000 32.000000 32.000000 32.000000 32.000000 41.000000 37.000000      -nan      -nan      -nan      -nan 
dram[2]:  1.000000      -nan      -nan      -nan 10.000000 12.000000 32.000000 32.000000 32.000000 32.000000 40.000000 37.000000      -nan      -nan      -nan      -nan 
dram[3]:      -nan      -nan      -nan      -nan 10.000000 12.000000 32.000000 32.000000 32.000000 32.000000 41.000000 38.000000      -nan      -nan      -nan      -nan 
dram[4]:      -nan      -nan      -nan      -nan 10.000000 12.000000 32.000000 32.000000 32.000000 32.000000 39.000000 37.000000      -nan      -nan      -nan      -nan 
dram[5]:      -nan      -nan      -nan      -nan 10.000000 12.000000 32.000000 32.000000 32.000000 32.000000 36.000000 37.000000      -nan      -nan      -nan      -nan 
average row locality = 1363/53 = 25.716982
number of total memory accesses made:
dram[0]:         0         0         0         0         0         0         0         0         0         0         0         0         0         0         0         0 
dram[1]:         0         0         0         0         0         0         0         0         0         0         0         0         0         0         0         0 
dram[2]:         0         0         0         0         0         0         0         0         0         0         0         0         0         0         0         0 
dram[3]:         0         0         0         0         0         0         0         0         0         0         0         0         0         0         0         0 
dram[4]:         0         0         0         0         0         0         0         0         0         0         0         0         0         0         0         0 
dram[5]:         0         0         0         0         0         0         0         0         0         0         0         0         0         0         0         0 
total accesses: 0
min_bank_accesses = 0!
min_chip_accesses = 0!
number of total read accesses:
dram[0]:         3         0         0         0        10        10        32        32        32        32        28        26         0         0         0         0 
dram[1]:         2         0         0         0        10        10        32        32        32        32        28        26         0         0         0         0 
dram[2]:         1         0         0         0        10        12        32        32        32        32        28        26         0         0         0         0 
dram[3]:         0         0         0         0        10        12        32        32        32        32        28        26         0         0         0         0 
dram[4]:         0         0         0         0        10        12        32        32        32        32        27        26         0         0         0         0 
dram[5]:         0         0         0         0        10        12        32        32        32        32        26        26         0         0         0         0 
total reads: 1223
min_bank_accesses = 0!
chip skew: 205/202 = 1.01
number of total write accesses:
dram[0]:         0         0         0         0         0         0         0         0         0         0        12        12         0         0         0         0 
dram[1]:         0         0         0         0         0         0         0         0         0         0        13        11         0         0         0         0 
dram[2]:         0         0         0         0         0         0         0         0         0         0        12        11         0         0         0         0 
dram[3]:         0         0         0         0         0         0         0         0         0         0        13        12         0         0         0         0 
dram[4]:         0         0         0         0         0         0         0         0         0         0        12        11         0         0         0         0 
dram[5]:         0         0         0         0         0         0         0         0         0         0        10        11         0         0         0         0 
total reads: 140
min_bank_accesses = 0!
chip skew: 25/21 = 1.19
average mf latency per bank:
dram[0]:       1300    none      none      none        1504      1019      1476      1005      1062       814      8526     11067    none      none      none      none  
dram[1]:          0    none      none      none        1430      1104      1373      1051      1024       904      8318     11541    none      none      none      none  
dram[2]:          0    none      none      none        1499      1653      1302      1229       961      1185      8787      9065    none      none      none      none  
dram[3]:     none      none      none      none        1391      1499      1331      1384       889      1133      8397      8461    none      none      none      none  
dram[4]:     none      none      none      none        1284      1493      1205      1185      1107       938     32593      8743    none      none      none      none  
dram[5]:     none      none      none      none        1042      1459      1092      1274       884      1163     11574      9004    none      none      none      none  
maximum mf latency per bank:
dram[0]:        278         0         0         0       468       354       512       433       527       482       539       494         0         0         0         0
dram[1]:          0         0         0         0       346       372       529       430       563       521       569       491         0         0         0         0
dram[2]:          0         0         0         0       387       390       587       515       605       518       606       516         0         0         0         0
dram[3]:          0         0         0         0       414       383       511       491       627       539       504       485         0         0         0         0
dram[4]:          0         0         0         0       355       356       475       446       497       519       578       533         0         0         0         0
dram[5]:          0         0         0         0       336       448       432       575       562       652       524       646         0         0         0         0
Memory Partition 0: 
Cache L2_bank_000:
MSHR contents

Cache L2_bank_001:
MSHR contents

In Dram Latency Queue (total = 0): 
DRAM[0]: 16 bks, busW=4 BL=8 CL=12, tRRD=2 tCCD=6, tRCD=12 tRAS=28 tRP=12 tRC=40
n_cmd=61336 n_nop=60889 n_act=11 n_pre=2 n_req=229 n_rd=410 n_write=24 bw_util=0.01415
n_activity=2359 dram_eff=0.368
bk0: 6a 61263i bk1: 0a 61335i bk2: 0a 61338i bk3: 0a 61340i bk4: 20a 61277i bk5: 20a 61247i bk6: 64a 61103i bk7: 64a 60952i bk8: 64a 61145i bk9: 64a 61060i bk10: 56a 61003i bk11: 52a 61011i bk12: 0a 61331i bk13: 0a 61332i bk14: 0a 61332i bk15: 0a 61334i 
dram_util_bins: 0 0 0 0 0 0 0 0 0 0
dram_eff_bins: 0 0 0 0 0 0 0 0 0 0
mrqq: max=4 avg=0.0115919
Memory Partition 1: 
Cache L2_bank_002:
MSHR contents

Cache L2_bank_003:
MSHR contents

In Dram Latency Queue (total = 0): 
DRAM[1]: 16 bks, busW=4 BL=8 CL=12, tRRD=2 tCCD=6, tRCD=12 tRAS=28 tRP=12 tRC=40
n_cmd=61336 n_nop=60895 n_act=9 n_pre=0 n_req=228 n_rd=408 n_write=24 bw_util=0.01409
n_activity=2256 dram_eff=0.383
bk0: 4a 61316i bk1: 0a 61337i bk2: 0a 61337i bk3: 0a 61337i bk4: 20a 61274i bk5: 20a 61255i bk6: 64a 61094i bk7: 64a 61011i bk8: 64a 61160i bk9: 64a 61080i bk10: 56a 61029i bk11: 52a 60993i bk12: 0a 61333i bk13: 0a 61334i bk14: 0a 61334i bk15: 0a 61334i 
dram_util_bins: 0 0 0 0 0 0 0 0 0 0
dram_eff_bins: 0 0 0 0 0 0 0 0 0 0
mrqq: max=11 avg=0.0207056
Memory Partition 2: 
Cache L2_bank_004:
MSHR contents

Cache L2_bank_005:
MSHR contents

In Dram Latency Queue (total = 0): 
DRAM[2]: 16 bks, busW=4 BL=8 CL=12, tRRD=2 tCCD=6, tRCD=12 tRAS=28 tRP=12 tRC=40
n_cmd=61336 n_nop=60894 n_act=9 n_pre=0 n_req=228 n_rd=410 n_write=23 bw_util=0.01412
n_activity=2327 dram_eff=0.3722
bk0: 2a 61318i bk1: 0a 61335i bk2: 0a 61337i bk3: 0a 61339i bk4: 20a 61274i bk5: 24a 61248i bk6: 64a 61158i bk7: 64a 61055i bk8: 64a 61160i bk9: 64a 61082i bk10: 56a 60979i bk11: 52a 60999i bk12: 0a 61332i bk13: 0a 61333i bk14: 0a 61335i bk15: 0a 61335i 
dram_util_bins: 0 0 0 0 0 0 0 0 0 0
dram_eff_bins: 0 0 0 0 0 0 0 0 0 0
mrqq: max=3 avg=0.00596713
Memory Partition 3: 
Cache L2_bank_006:
MSHR contents

Cache L2_bank_007:
MSHR contents

In Dram Latency Queue (total = 0): 
DRAM[3]: 16 bks, busW=4 BL=8 CL=12, tRRD=2 tCCD=6, tRCD=12 tRAS=28 tRP=12 tRC=40
n_cmd=61336 n_nop=60895 n_act=8 n_pre=0 n_req=229 n_rd=408 n_write=25 bw_util=0.01412
n_activity=2297 dram_eff=0.377
bk0: 0a 61335i bk1: 0a 61336i bk2: 0a 61337i bk3: 0a 61338i bk4: 20a 61274i bk5: 24a 61221i bk6: 64a 61109i bk7: 64a 61001i bk8: 64a 61147i bk9: 64a 61058i bk10: 56a 60981i bk11: 52a 60987i bk12: 0a 61332i bk13: 0a 61333i bk14: 0a 61335i bk15: 0a 61335i 
dram_util_bins: 0 0 0 0 0 0 0 0 0 0
dram_eff_bins: 0 0 0 0 0 0 0 0 0 0
mrqq: max=5 avg=0.014119
Memory Partition 4: 
Cache L2_bank_008:
MSHR contents

Cache L2_bank_009:
MSHR contents

In Dram Latency Queue (total = 0): 
DRAM[4]: 16 bks, busW=4 BL=8 CL=12, tRRD=2 tCCD=6, tRCD=12 tRAS=28 tRP=12 tRC=40
n_cmd=61336 n_nop=60899 n_act=8 n_pre=0 n_req=226 n_rd=406 n_write=23 bw_util=0.01399
n_activity=2152 dram_eff=0.3987
bk0: 0a 61335i bk1: 0a 61337i bk2: 0a 61338i bk3: 0a 61340i bk4: 20a 61253i bk5: 24a 61228i bk6: 64a 61063i bk7: 64a 60981i bk8: 64a 61108i bk9: 64a 61050i bk10: 54a 61023i bk11: 52a 60986i bk12: 0a 61331i bk13: 0a 61334i bk14: 0a 61335i bk15: 0a 61335i 
dram_util_bins: 0 0 0 0 0 0 0 0 0 0
dram_eff_bins: 0 0 0 0 0 0 0 0 0 0
mrqq: max=10 avg=0.0208034
Memory Partition 5: 
Cache L2_bank_010:
MSHR contents

Cache L2_bank_011:
MSHR contents

In Dram Latency Queue (total = 0): 
DRAM[5]: 16 bks, busW=4 BL=8 CL=12, tRRD=2 tCCD=6, tRCD=12 tRAS=28 tRP=12 tRC=40
n_cmd=61336 n_nop=60903 n_act=8 n_pre=0 n_req=223 n_rd=404 n_write=21 bw_util=0.01386
n_activity=2080 dram_eff=0.4087
bk0: 0a 61334i bk1: 0a 61336i bk2: 0a 61336i bk3: 0a 61337i bk4: 20a 61274i bk5: 24a 61205i bk6: 64a 61058i bk7: 64a 61055i bk8: 64a 61151i bk9: 64a 61034i bk10: 52a 60966i bk11: 52a 60976i bk12: 0a 61333i bk13: 0a 61334i bk14: 0a 61334i bk15: 0a 61334i 
dram_util_bins: 0 0 0 0 0 0 0 0 0 0
dram_eff_bins: 0 0 0 0 0 0 0 0 0 0
mrqq: max=10 avg=0.0269988

========= L2 cache stats =========
L2_cache_bank[0]: Access = 1887, Miss = 105, Miss_rate = 0.056, Pending_hits = 10, Reservation_fails = 337
L2_cache_bank[1]: Access = 2154, Miss = 100, Miss_rate = 0.046, Pending_hits = 2, Reservation_fails = 0
L2_cache_bank[2]: Access = 1846, Miss = 104, Miss_rate = 0.056, Pending_hits = 1, Reservation_fails = 0
L2_cache_bank[3]: Access = 2177, Miss = 100, Miss_rate = 0.046, Pending_hits = 1, Reservation_fails = 0
L2_cache_bank[4]: Access = 1861, Miss = 103, Miss_rate = 0.055, Pending_hits = 3, Reservation_fails = 104
L2_cache_bank[5]: Access = 1801, Miss = 102, Miss_rate = 0.057, Pending_hits = 0, Reservation_fails = 0
L2_cache_bank[6]: Access = 1815, Miss = 102, Miss_rate = 0.056, Pending_hits = 3, Reservation_fails = 0
L2_cache_bank[7]: Access = 1739, Miss = 102, Miss_rate = 0.059, Pending_hits = 3, Reservation_fails = 0
L2_cache_bank[8]: Access = 5308, Miss = 101, Miss_rate = 0.019, Pending_hits = 2, Reservation_fails = 0
L2_cache_bank[9]: Access = 1763, Miss = 102, Miss_rate = 0.058, Pending_hits = 1, Reservation_fails = 0
L2_cache_bank[10]: Access = 2114, Miss = 100, Miss_rate = 0.047, Pending_hits = 0, Reservation_fails = 0
L2_cache_bank[11]: Access = 1734, Miss = 102, Miss_rate = 0.059, Pending_hits = 1, Reservation_fails = 0
L2_total_cache_accesses = 26199
L2_total_cache_misses = 1223
L2_total_cache_miss_rate = 0.0467
L2_total_cache_pending_hits = 27
L2_total_cache_reservation_fails = 441
L2_total_cache_breakdown:
	L2_cache_stats_breakdown[GLOBAL_ACC_R][HIT] = 5570
	L2_cache_stats_breakdown[GLOBAL_ACC_R][HIT_RESERVED] = 4
	L2_cache_stats_breakdown[GLOBAL_ACC_R][MISS] = 1088
	L2_cache_stats_breakdown[CONST_ACC_R][HIT] = 11
	L2_cache_stats_breakdown[CONST_ACC_R][HIT_RESERVED] = 3
	L2_cache_stats_breakdown[CONST_ACC_R][MISS] = 1
	L2_cache_stats_breakdown[CONST_ACC_R][RESERVATION_FAIL] = 109
	L2_cache_stats_breakdown[GLOBAL_ACC_W][HIT] = 19307
	L2_cache_stats_breakdown[GLOBAL_ACC_W][HIT_RESERVED] = 11
	L2_cache_stats_breakdown[GLOBAL_ACC_W][MISS] = 129
	L2_cache_stats_breakdown[INST_ACC_R][HIT] = 61
	L2_cache_stats_breakdown[INST_ACC_R][HIT_RESERVED] = 9
	L2_cache_stats_breakdown[INST_ACC_R][MISS] = 5
	L2_cache_stats_breakdown[INST_ACC_R][RESERVATION_FAIL] = 332
L2_cache_data_port_util = 0.075
L2_cache_fill_port_util = 0.009

icnt_total_pkts_mem_to_simt=53177
icnt_total_pkts_simt_to_mem=45799
LD_mem_lat_dist  0 0 0 0 0 0 0 0 0 0 0 0 0 0 0 0 0 0 0 0 0 0 0 0 0 0 0
ST_mem_lat_dist  0 0 0 0 0 0 0 0 0 0 0 0 0 0 0 0 0 0 0 0 0 0 0 0 0 0 0
----------------------------Interconnect-DETAILS--------------------------------
Class 0:
Packet latency average = 8.575
	minimum = 6
	maximum = 21
Network latency average = 8.375
	minimum = 6
	maximum = 20
Slowest packet = 52380
Flit latency average = 6.7807
	minimum = 6
	maximum = 16
Slowest flit = 98930
Fragmentation average = 0
	minimum = 0
	maximum = 0
Injected packet rate average = 0.0034413
	minimum = 0.00232288 (at node 0)
	maximum = 0.00696864 (at node 2)
Accepted packet rate average = 0.0034413
	minimum = 0.00232288 (at node 0)
	maximum = 0.00696864 (at node 2)
Injected flit rate average = 0.00980772
	minimum = 0.00232288 (at node 0)
	maximum = 0.029036 (at node 18)
Accepted flit rate average= 0.00980772
	minimum = 0.00232288 (at node 20)
	maximum = 0.0255517 (at node 2)
Injected packet length average = 2.85
Accepted packet length average = 2.85
Total in-flight flits = 0 (0 measured)
====== Overall Traffic Statistics ======
====== Traffic class 0 ======
Packet latency average = 20.1645 (8 samples)
	minimum = 6 (8 samples)
	maximum = 125.625 (8 samples)
Network latency average = 14.526 (8 samples)
	minimum = 6 (8 samples)
	maximum = 93.5 (8 samples)
Flit latency average = 13.7985 (8 samples)
	minimum = 6 (8 samples)
	maximum = 91.5 (8 samples)
Fragmentation average = 0 (8 samples)
	minimum = 0 (8 samples)
	maximum = 0 (8 samples)
Injected packet rate average = 0.0304524 (8 samples)
	minimum = 0.0191732 (8 samples)
	maximum = 0.0881042 (8 samples)
Accepted packet rate average = 0.0304524 (8 samples)
	minimum = 0.0191732 (8 samples)
	maximum = 0.0881042 (8 samples)
Injected flit rate average = 0.0597 (8 samples)
	minimum = 0.0334422 (8 samples)
	maximum = 0.131665 (8 samples)
Accepted flit rate average = 0.0597 (8 samples)
	minimum = 0.0321663 (8 samples)
	maximum = 0.212597 (8 samples)
Injected packet size average = 1.96044 (8 samples)
Accepted packet size average = 1.96044 (8 samples)
Hops average = 1 (8 samples)
----------------------------END-of-Interconnect-DETAILS-------------------------


gpgpu_simulation_time = 0 days, 0 hrs, 0 min, 8 sec (8 sec)
gpgpu_simulation_rate = 172106 (inst/sec)
gpgpu_simulation_rate = 5808 (cycle/sec)
GPGPU-Sim: synchronize waiting for inactive GPU simulation
GPGPU-Sim API: Stream Manager State
GPGPU-Sim: detected inactive GPU simulation thread
Kernel Executed 8 times
Processing time: 8576.823242 (ms)
Result stored in result.txt
