

        *** GPGPU-Sim Simulator Version 3.2.2  [build 0] ***


GPGPU-Sim PTX: simulation mode 0 (can change with PTX_SIM_MODE_FUNC environment variable:
               1=functional simulation only, 0=detailed performance simulator)
GPGPU-Sim: Configuration options:

-network_mode                           1 # Interconnection network mode
-inter_config_file   config_fermi_islip.icnt # Interconnection network config file
-gpgpu_ptx_use_cuobjdump                    1 # Use cuobjdump to extract ptx and sass from binaries
-gpgpu_experimental_lib_support                    0 # Try to extract code from cuda libraries [Broken because of unknown cudaGetExportTable]
-gpgpu_ptx_convert_to_ptxplus                    0 # Convert SASS (native ISA) to ptxplus and run ptxplus
-gpgpu_ptx_force_max_capability                   20 # Force maximum compute capability
-gpgpu_ptx_inst_debug_to_file                    0 # Dump executed instructions' debug information to file
-gpgpu_ptx_inst_debug_file       inst_debug.txt # Executed instructions' debug output file
-gpgpu_ptx_inst_debug_thread_uid                    1 # Thread UID for executed instructions' debug output
-gpgpu_simd_model                       1 # 1 = post-dominator
-gpgpu_shader_core_pipeline              1536:32 # shader core pipeline config, i.e., {<nthread>:<warpsize>}
-gpgpu_tex_cache:l1  4:128:24,L:R:m:N:L,F:128:4,128:2 # per-shader L1 texture cache  (READ-ONLY) config  {<nsets>:<bsize>:<assoc>,<rep>:<wr>:<alloc>:<wr_alloc>,<mshr>:<N>:<merge>,<mq>:<rf>}
-gpgpu_const_cache:l1 64:64:2,L:R:f:N:L,A:2:32,4 # per-shader L1 constant memory cache  (READ-ONLY) config  {<nsets>:<bsize>:<assoc>,<rep>:<wr>:<alloc>:<wr_alloc>,<mshr>:<N>:<merge>,<mq>} 
-gpgpu_cache:il1     4:128:4,L:R:f:N:L,A:2:32,4 # shader L1 instruction cache config  {<nsets>:<bsize>:<assoc>,<rep>:<wr>:<alloc>:<wr_alloc>,<mshr>:<N>:<merge>,<mq>} 
-gpgpu_cache:dl1     32:128:4,L:L:m:N:H,A:32:8,8 # per-shader L1 data cache config  {<nsets>:<bsize>:<assoc>,<rep>:<wr>:<alloc>:<wr_alloc>,<mshr>:<N>:<merge>,<mq> | none}
-gpgpu_cache:dl1PrefL1                 none # per-shader L1 data cache config  {<nsets>:<bsize>:<assoc>,<rep>:<wr>:<alloc>:<wr_alloc>,<mshr>:<N>:<merge>,<mq> | none}
-gpgpu_cache:dl1PreShared                 none # per-shader L1 data cache config  {<nsets>:<bsize>:<assoc>,<rep>:<wr>:<alloc>:<wr_alloc>,<mshr>:<N>:<merge>,<mq> | none}
-gmem_skip_L1D                          0 # global memory access skip L1D cache (implements -Xptxas -dlcm=cg, default=no skip)
-gpgpu_perfect_mem                      0 # enable perfect memory mode (no cache miss)
-n_regfile_gating_group                    4 # group of lanes that should be read/written together)
-gpgpu_clock_gated_reg_file                    0 # enable clock gated reg file for power calculations
-gpgpu_clock_gated_lanes                    0 # enable clock gated lanes for power calculations
-gpgpu_shader_registers                32768 # Number of registers per shader core. Limits number of concurrent CTAs. (default 8192)
-gpgpu_shader_cta                       8 # Maximum number of concurrent CTAs in shader (default 8)
-gpgpu_num_cta_barriers                   16 # Maximum number of named barriers per CTA (default 16)
-gpgpu_n_clusters                      15 # number of processing clusters
-gpgpu_n_cores_per_cluster                    1 # number of simd cores per cluster
-gpgpu_n_cluster_ejection_buffer_size                    8 # number of packets in ejection buffer
-gpgpu_n_ldst_response_buffer_size                    2 # number of response packets in ld/st unit ejection buffer
-gpgpu_shmem_size                   16384 # Size of shared memory per shader core (default 16kB)
-gpgpu_shmem_size                   49152 # Size of shared memory per shader core (default 16kB)
-gpgpu_shmem_size_PrefL1                16384 # Size of shared memory per shader core (default 16kB)
-gpgpu_shmem_size_PrefShared                16384 # Size of shared memory per shader core (default 16kB)
-gpgpu_shmem_num_banks                   32 # Number of banks in the shared memory in each shader core (default 16)
-gpgpu_shmem_limited_broadcast                    0 # Limit shared memory to do one broadcast per cycle (default on)
-gpgpu_shmem_warp_parts                    1 # Number of portions a warp is divided into for shared memory bank conflict check 
-gpgpu_warpdistro_shader                   -1 # Specify which shader core to collect the warp size distribution from
-gpgpu_warp_issue_shader                    0 # Specify which shader core to collect the warp issue distribution from
-gpgpu_local_mem_map                    1 # Mapping from local memory space address to simulated GPU physical address space (default = enabled)
-gpgpu_num_reg_banks                   16 # Number of register banks (default = 8)
-gpgpu_reg_bank_use_warp_id                    0 # Use warp ID in mapping registers to banks (default = off)
-gpgpu_operand_collector_num_units_sp                    6 # number of collector units (default = 4)
-gpgpu_operand_collector_num_units_sfu                    8 # number of collector units (default = 4)
-gpgpu_operand_collector_num_units_mem                    2 # number of collector units (default = 2)
-gpgpu_operand_collector_num_units_gen                    0 # number of collector units (default = 0)
-gpgpu_operand_collector_num_in_ports_sp                    2 # number of collector unit in ports (default = 1)
-gpgpu_operand_collector_num_in_ports_sfu                    1 # number of collector unit in ports (default = 1)
-gpgpu_operand_collector_num_in_ports_mem                    1 # number of collector unit in ports (default = 1)
-gpgpu_operand_collector_num_in_ports_gen                    0 # number of collector unit in ports (default = 0)
-gpgpu_operand_collector_num_out_ports_sp                    2 # number of collector unit in ports (default = 1)
-gpgpu_operand_collector_num_out_ports_sfu                    1 # number of collector unit in ports (default = 1)
-gpgpu_operand_collector_num_out_ports_mem                    1 # number of collector unit in ports (default = 1)
-gpgpu_operand_collector_num_out_ports_gen                    0 # number of collector unit in ports (default = 0)
-gpgpu_coalesce_arch                   13 # Coalescing arch (default = 13, anything else is off for now)
-gpgpu_num_sched_per_core                    2 # Number of warp schedulers per core
-gpgpu_max_insn_issue_per_warp                    1 # Max number of instructions that can be issued per warp in one cycle by scheduler
-gpgpu_simt_core_sim_order                    1 # Select the simulation order of cores in a cluster (0=Fix, 1=Round-Robin)
-gpgpu_pipeline_widths        2,1,1,2,1,1,2 # Pipeline widths ID_OC_SP,ID_OC_SFU,ID_OC_MEM,OC_EX_SP,OC_EX_SFU,OC_EX_MEM,EX_WB
-gpgpu_num_sp_units                     2 # Number of SP units (default=1)
-gpgpu_num_sfu_units                    1 # Number of SF units (default=1)
-gpgpu_num_mem_units                    1 # Number if ldst units (default=1) WARNING: not hooked up to anything
-gpgpu_scheduler                      gto # Scheduler configuration: < lrr | gto | two_level_active > If two_level_active:<num_active_warps>:<inner_prioritization>:<outer_prioritization>For complete list of prioritization values see shader.h enum scheduler_prioritization_typeDefault: gto
-gpgpu_dram_scheduler                    1 # 0 = fifo, 1 = FR-FCFS (defaul)
-gpgpu_dram_partition_queues              8:8:8:8 # i2$:$2d:d2$:$2i
-l2_ideal                               0 # Use a ideal L2 cache that always hit
-gpgpu_cache:dl2     64:128:8,L:B:m:W:L,A:32:4,4:0,32 # unified banked L2 data cache config  {<nsets>:<bsize>:<assoc>,<rep>:<wr>:<alloc>:<wr_alloc>,<mshr>:<N>:<merge>,<mq>}
-gpgpu_cache:dl2_texture_only                    0 # L2 cache used for texture only
-gpgpu_n_mem                            6 # number of memory modules (e.g. memory controllers) in gpu
-gpgpu_n_sub_partition_per_mchannel                    2 # number of memory subpartition in each memory module
-gpgpu_n_mem_per_ctrlr                    2 # number of memory chips per memory controller
-gpgpu_memlatency_stat                   14 # track and display latency statistics 0x2 enables MC, 0x4 enables queue logs
-gpgpu_frfcfs_dram_sched_queue_size                   16 # 0 = unlimited (default); # entries per chip
-gpgpu_dram_return_queue_size                  116 # 0 = unlimited (default); # entries per chip
-gpgpu_dram_buswidth                    4 # default = 4 bytes (8 bytes per cycle at DDR)
-gpgpu_dram_burst_length                    8 # Burst length of each DRAM request (default = 4 data bus cycle)
-dram_data_command_freq_ratio                    4 # Frequency ratio between DRAM data bus and command bus (default = 2 times, i.e. DDR)
-gpgpu_dram_timing_opt nbk=16:CCD=2:RRD=6:RCD=12:RAS=28:RP=12:RC=40: CL=12:WL=4:CDLR=5:WR=12:nbkgrp=4:CCDL=3:RTPL=2 # DRAM timing parameters = {nbk:tCCD:tRRD:tRCD:tRAS:tRP:tRC:CL:WL:tCDLR:tWR:nbkgrp:tCCDL:tRTPL}
-rop_latency                          120 # ROP queue latency (default 85)
-dram_latency                         100 # DRAM latency (default 30)
-gpgpu_mem_addr_mapping dramid@8;00000000.00000000.00000000.00000000.0000RRRR.RRRRRRRR.BBBCCCCB.CCSSSSSS # mapping memory address to dram model {dramid@<start bit>;<memory address map>}
-gpgpu_mem_addr_test                    0 # run sweep test to check address mapping for aliased address
-gpgpu_mem_address_mask                    1 # 0 = old addressing mask, 1 = new addressing mask, 2 = new add. mask + flipped bank sel and chip sel bits
-gpuwattch_xml_file  gpuwattch_gtx480.xml # GPUWattch XML file
-power_simulation_enabled                    1 # Turn on power simulator (1=On, 0=Off)
-power_per_cycle_dump                    0 # Dump detailed power output each cycle
-power_trace_enabled                    0 # produce a file for the power trace (1=On, 0=Off)
-power_trace_zlevel                     6 # Compression level of the power trace output log (0=no comp, 9=highest)
-steady_power_levels_enabled                    0 # produce a file for the steady power levels (1=On, 0=Off)
-steady_state_definition                  8:4 # allowed deviation:number of samples
-gpgpu_max_cycle                        0 # terminates gpu simulation early (0 = no limit)
-gpgpu_max_insn                         0 # terminates gpu simulation early (0 = no limit)
-gpgpu_max_cta                          0 # terminates gpu simulation early (0 = no limit)
-gpgpu_runtime_stat                   500 # display runtime statistics such as dram utilization {<freq>:<flag>}
-liveness_message_freq                    1 # Minimum number of seconds between simulation liveness messages (0 = always print)
-gpgpu_flush_l1_cache                    0 # Flush L1 cache at the end of each kernel call
-gpgpu_flush_l2_cache                    0 # Flush L2 cache at the end of each kernel call
-gpgpu_deadlock_detect                    1 # Stop the simulation at deadlock (1=on (default), 0=off)
-gpgpu_ptx_instruction_classification                    0 # if enabled will classify ptx instruction types per kernel (Max 255 kernels now)
-gpgpu_ptx_sim_mode                     0 # Select between Performance (default) or Functional simulation (1)
-gpgpu_clock_domains 700.0:700.0:700.0:924.0 # Clock Domain Frequencies in MhZ {<Core Clock>:<ICNT Clock>:<L2 Clock>:<DRAM Clock>}
-gpgpu_max_concurrent_kernel                    8 # maximum kernels that can run concurrently on GPU
-gpgpu_cflog_interval                    0 # Interval between each snapshot in control flow logger
-visualizer_enabled                     0 # Turn on visualizer output (1=On, 0=Off)
-visualizer_outputfile                 NULL # Specifies the output log file for visualizer
-visualizer_zlevel                      6 # Compression level of the visualizer output log (0=no comp, 9=highest)
-trace_enabled                          0 # Turn on traces
-trace_components                    none # comma seperated list of traces to enable. Complete list found in trace_streams.tup. Default none
-trace_sampling_core                    0 # The core which is printed using CORE_DPRINTF. Default 0
-trace_sampling_memory_partition                   -1 # The memory partition which is printed using MEMPART_DPRINTF. Default -1 (i.e. all)
-enable_ptx_file_line_stats                    1 # Turn on PTX source line statistic profiling. (1 = On)
-ptx_line_stats_filename gpgpu_inst_stats.txt # Output file for PTX source line statistics.
-save_embedded_ptx                      0 # saves ptx files embedded in binary as <n>.ptx
-keep                                   0 # keep intermediate files created by GPGPU-Sim when interfacing with external programs
-gpgpu_ptx_save_converted_ptxplus                    0 # Saved converted ptxplus to a file
-ptx_opcode_latency_int         4,13,4,5,145 # Opcode latencies for integers <ADD,MAX,MUL,MAD,DIV>Default 1,1,19,25,145
-ptx_opcode_latency_fp          4,13,4,5,39 # Opcode latencies for single precision floating points <ADD,MAX,MUL,MAD,DIV>Default 1,1,1,1,30
-ptx_opcode_latency_dp         8,19,8,8,330 # Opcode latencies for double precision floating points <ADD,MAX,MUL,MAD,DIV>Default 8,8,8,8,335
-ptx_opcode_initiation_int            1,2,2,1,8 # Opcode initiation intervals for integers <ADD,MAX,MUL,MAD,DIV>Default 1,1,4,4,32
-ptx_opcode_initiation_fp            1,2,1,1,4 # Opcode initiation intervals for single precision floating points <ADD,MAX,MUL,MAD,DIV>Default 1,1,1,1,5
-ptx_opcode_initiation_dp         8,16,8,8,130 # Opcode initiation intervals for double precision floating points <ADD,MAX,MUL,MAD,DIV>Default 8,8,8,8,130
DRAM Timing Options:
nbk                                    16 # number of banks
CCD                                     2 # column to column delay
RRD                                     6 # minimal delay between activation of rows in different banks
RCD                                    12 # row to column delay
RAS                                    28 # time needed to activate row
RP                                     12 # time needed to precharge (deactivate) row
RC                                     40 # row cycle time
CDLR                                    5 # switching from write to read (changes tWTR)
WR                                     12 # last data-in to row precharge
CL                                     12 # CAS latency
WL                                      4 # Write latency
nbkgrp                                  4 # number of bank groups
CCDL                                    3 # column to column delay between accesses to different bank groups
RTPL                                    2 # read to precharge delay between accesses to different bank groups
Total number of memory sub partition = 12
addr_dec_mask[CHIP]  = 0000000000000000 	high:64 low:0
addr_dec_mask[BK]    = 000000000000e100 	high:16 low:8
addr_dec_mask[ROW]   = 000000000fff0000 	high:28 low:16
addr_dec_mask[COL]   = 0000000000001eff 	high:13 low:0
addr_dec_mask[BURST] = 000000000000003f 	high:6 low:0
sub_partition_id_mask = 0000000000000100
GPGPU-Sim uArch: clock freqs: 700000000.000000:700000000.000000:700000000.000000:924000000.000000
GPGPU-Sim uArch: clock periods: 0.00000000142857142857:0.00000000142857142857:0.00000000142857142857:0.00000000108225108225
*** Initializing Memory Statistics ***
GPGPU-Sim uArch: interconnect node map (shaderID+MemID to icntID)
GPGPU-Sim uArch: Memory nodes ID start from index: 15
GPGPU-Sim uArch:    0   1   2   3   4
GPGPU-Sim uArch:    5   6   7   8   9
GPGPU-Sim uArch:   10  11  12  13  14
GPGPU-Sim uArch:   15  16  17  18  19
GPGPU-Sim uArch:   20  21  22  23  24
GPGPU-Sim uArch:   25  26
GPGPU-Sim uArch: interconnect node reverse map (icntID to shaderID+MemID)
GPGPU-Sim uArch: Memory nodes start from ID: 15
GPGPU-Sim uArch:    0   1   2   3   4
GPGPU-Sim uArch:    5   6   7   8   9
GPGPU-Sim uArch:   10  11  12  13  14
GPGPU-Sim uArch:   15  16  17  18  19
GPGPU-Sim uArch:   20  21  22  23  24
GPGPU-Sim uArch:   25  26
e90130ed32b54ef5e43db02ff7fc8a32  /home/gpgpu-sim/ispass2009-benchmarks/bin/release/RAY
GPGPU-Sim uArch: performance model initialization complete.
GPGPU-Sim PTX: __cudaRegisterFatBinary, fat_cubin_handle = 1, filename=rayTracing.cu
self exe links to: /home/gpgpu-sim/ispass2009-benchmarks/bin/release/RAY
Running md5sum using "md5sum /home/gpgpu-sim/ispass2009-benchmarks/bin/release/RAY "
Running cuobjdump using "$CUDA_INSTALL_PATH/bin/cuobjdump -ptx -elf -sass /home/gpgpu-sim/ispass2009-benchmarks/bin/release/RAY > _cuobjdump_complete_output_gp1IOT"
Parsing file _cuobjdump_complete_output_gp1IOT
######### cuobjdump parser ########
## Adding new section ELF
Adding arch: sm_30
Adding identifier: rayTracing.cu
## Adding new section PTX
Adding ptx filename: _cuobjdump_1.ptx
Adding arch: sm_30
Adding identifier: rayTracing.cu
## Adding new section ELF
Adding arch: sm_20
Adding identifier: rayTracing.cu
## Adding new section PTX
Adding ptx filename: _cuobjdump_2.ptx
Adding arch: sm_20
Adding identifier: rayTracing.cu
## Adding new section ELF
Adding arch: sm_10
Adding identifier: rayTracing.cu
## Adding new section PTX
Adding ptx filename: _cuobjdump_3.ptx
Adding arch: sm_10
Adding identifier: rayTracing.cu
Done parsing!!!
GPGPU-Sim PTX: __cudaRegisterFunction _Z6renderPjP4Nodejjff : hostFun 0x0x40be60, fat_cubin_handle = 1
GPGPU-Sim PTX: allocating constant region for "MView" from 0x100 to 0x130 (global memory space) 1
GPGPU-Sim PTX: allocating constant region for "cnode" from 0x180 to 0x220 (global memory space) 2
GPGPU-Sim PTX: allocating stack frame region for .param "func_retval0" from 0x0 to 0xc
GPGPU-Sim PTX: allocating stack frame region for .param "_Zmi6float3S__param_0" from 0xc to 0x18
GPGPU-Sim PTX: allocating stack frame region for .param "_Zmi6float3S__param_1" from 0x18 to 0x24
GPGPU-Sim PTX: instruction assembly for function '_Zmi6float3S_'...   done.
GPGPU-Sim PTX: finding reconvergence points for '_Zmi6float3S_'...
GPGPU-Sim PTX: Finding dominators for '_Zmi6float3S_'...
GPGPU-Sim PTX: Finding immediate dominators for '_Zmi6float3S_'...
GPGPU-Sim PTX: Finding postdominators for '_Zmi6float3S_'...
GPGPU-Sim PTX: Finding immediate postdominators for '_Zmi6float3S_'...
GPGPU-Sim PTX: pre-decoding instructions for '_Zmi6float3S_'...
GPGPU-Sim PTX: reconvergence points for _Zmi6float3S_...
GPGPU-Sim PTX: ... end of reconvergence points for _Zmi6float3S_
GPGPU-Sim PTX: ... done pre-decoding instructions for '_Zmi6float3S_'.
GPGPU-Sim PTX: allocating stack frame region for .param "func_retval0" from 0x0 to 0xc
GPGPU-Sim PTX: allocating stack frame region for .param "_Z9normalize6float3_param_0" from 0xc to 0x18
GPGPU-Sim PTX: instruction assembly for function '_Z9normalize6float3'...   done.
GPGPU-Sim PTX: finding reconvergence points for '_Z9normalize6float3'...
GPGPU-Sim PTX: Finding dominators for '_Z9normalize6float3'...
GPGPU-Sim PTX: Finding immediate dominators for '_Z9normalize6float3'...
GPGPU-Sim PTX: Finding postdominators for '_Z9normalize6float3'...
GPGPU-Sim PTX: Finding immediate postdominators for '_Z9normalize6float3'...
GPGPU-Sim PTX: pre-decoding instructions for '_Z9normalize6float3'...
GPGPU-Sim PTX: reconvergence points for _Z9normalize6float3...
GPGPU-Sim PTX: ... end of reconvergence points for _Z9normalize6float3
GPGPU-Sim PTX: ... done pre-decoding instructions for '_Z9normalize6float3'.
GPGPU-Sim PTX: allocating stack frame region for .param "func_retval0" from 0x0 to 0x4
GPGPU-Sim PTX: allocating stack frame region for .param "_Z18intersectionSphere5Rayon6float3f_param_0" from 0x4 to 0x1c
GPGPU-Sim PTX: allocating stack frame region for .param "_Z18intersectionSphere5Rayon6float3f_param_1" from 0x1c to 0x28
GPGPU-Sim PTX: allocating stack frame region for .param "_Z18intersectionSphere5Rayon6float3f_param_2" from 0x28 to 0x2c
GPGPU-Sim PTX: instruction assembly for function '_Z18intersectionSphere5Rayon6float3f'...   done.
GPGPU-Sim PTX: finding reconvergence points for '_Z18intersectionSphere5Rayon6float3f'...
GPGPU-Sim PTX: Finding dominators for '_Z18intersectionSphere5Rayon6float3f'...
GPGPU-Sim PTX: Finding immediate dominators for '_Z18intersectionSphere5Rayon6float3f'...
GPGPU-Sim PTX: Finding postdominators for '_Z18intersectionSphere5Rayon6float3f'...
GPGPU-Sim PTX: Finding immediate postdominators for '_Z18intersectionSphere5Rayon6float3f'...
GPGPU-Sim PTX: pre-decoding instructions for '_Z18intersectionSphere5Rayon6float3f'...
GPGPU-Sim PTX: reconvergence points for _Z18intersectionSphere5Rayon6float3f...
GPGPU-Sim PTX:  1 (potential) branch divergence @  PC=0x1b8 (_1.ptx:122) @%p3 bra BB2_3;
GPGPU-Sim PTX:    immediate post dominator      @ 
GPGPU-Sim PTX:  2 (potential) branch divergence @  PC=0x1d8 (_1.ptx:129) @%p4 bra BB2_3;
GPGPU-Sim PTX:    immediate post dominator      @ 
GPGPU-Sim PTX: ... end of reconvergence points for _Z18intersectionSphere5Rayon6float3f
GPGPU-Sim PTX: ... done pre-decoding instructions for '_Z18intersectionSphere5Rayon6float3f'.
GPGPU-Sim PTX: allocating stack frame region for .param "func_retval0" from 0x0 to 0x4
GPGPU-Sim PTX: allocating stack frame region for .param "_Z16intersectionPlan5Rayon6float3S0__param_0" from 0x4 to 0x1c
GPGPU-Sim PTX: allocating stack frame region for .param "_Z16intersectionPlan5Rayon6float3S0__param_1" from 0x1c to 0x28
GPGPU-Sim PTX: allocating stack frame region for .param "_Z16intersectionPlan5Rayon6float3S0__param_2" from 0x28 to 0x34
GPGPU-Sim PTX: instruction assembly for function '_Z16intersectionPlan5Rayon6float3S0_'...   done.
GPGPU-Sim PTX: finding reconvergence points for '_Z16intersectionPlan5Rayon6float3S0_'...
GPGPU-Sim PTX: Finding dominators for '_Z16intersectionPlan5Rayon6float3S0_'...
GPGPU-Sim PTX: Finding immediate dominators for '_Z16intersectionPlan5Rayon6float3S0_'...
GPGPU-Sim PTX: Finding postdominators for '_Z16intersectionPlan5Rayon6float3S0_'...
GPGPU-Sim PTX: Finding immediate postdominators for '_Z16intersectionPlan5Rayon6float3S0_'...
GPGPU-Sim PTX: pre-decoding instructions for '_Z16intersectionPlan5Rayon6float3S0_'...
GPGPU-Sim PTX: reconvergence points for _Z16intersectionPlan5Rayon6float3S0_...
GPGPU-Sim PTX:  1 (potential) branch divergence @  PC=0x2c0 (_1.ptx:185) @%p1 bra BB3_2;
GPGPU-Sim PTX:    immediate post dominator      @ 
GPGPU-Sim PTX: ... end of reconvergence points for _Z16intersectionPlan5Rayon6float3S0_
GPGPU-Sim PTX: ... done pre-decoding instructions for '_Z16intersectionPlan5Rayon6float3S0_'.
GPGPU-Sim PTX: allocating stack frame region for .param "func_retval0" from 0x0 to 0xc
GPGPU-Sim PTX: allocating stack frame region for .param "_Z10getNormale6float3S__param_0" from 0xc to 0x18
GPGPU-Sim PTX: allocating stack frame region for .param "_Z10getNormale6float3S__param_1" from 0x18 to 0x24
GPGPU-Sim PTX: instruction assembly for function '_Z10getNormale6float3S_'...   done.
GPGPU-Sim PTX: finding reconvergence points for '_Z10getNormale6float3S_'...
GPGPU-Sim PTX: Finding dominators for '_Z10getNormale6float3S_'...
GPGPU-Sim PTX: Finding immediate dominators for '_Z10getNormale6float3S_'...
GPGPU-Sim PTX: Finding postdominators for '_Z10getNormale6float3S_'...
GPGPU-Sim PTX: Finding immediate postdominators for '_Z10getNormale6float3S_'...
GPGPU-Sim PTX: pre-decoding instructions for '_Z10getNormale6float3S_'...
GPGPU-Sim PTX: reconvergence points for _Z10getNormale6float3S_...
GPGPU-Sim PTX: ... end of reconvergence points for _Z10getNormale6float3S_
GPGPU-Sim PTX: ... done pre-decoding instructions for '_Z10getNormale6float3S_'.
GPGPU-Sim PTX: allocating stack frame region for .param "func_retval0" from 0x0 to 0xc
GPGPU-Sim PTX: allocating stack frame region for .param "_Z11getNormaleP6float3_param_0" from 0xc to 0x18
GPGPU-Sim PTX: instruction assembly for function '_Z11getNormaleP6float3'...   done.
GPGPU-Sim PTX: finding reconvergence points for '_Z11getNormaleP6float3'...
GPGPU-Sim PTX: Finding dominators for '_Z11getNormaleP6float3'...
GPGPU-Sim PTX: Finding immediate dominators for '_Z11getNormaleP6float3'...
GPGPU-Sim PTX: Finding postdominators for '_Z11getNormaleP6float3'...
GPGPU-Sim PTX: Finding immediate postdominators for '_Z11getNormaleP6float3'...
GPGPU-Sim PTX: pre-decoding instructions for '_Z11getNormaleP6float3'...
GPGPU-Sim PTX: reconvergence points for _Z11getNormaleP6float3...
GPGPU-Sim PTX: ... end of reconvergence points for _Z11getNormaleP6float3
GPGPU-Sim PTX: ... done pre-decoding instructions for '_Z11getNormaleP6float3'.
GPGPU-Sim PTX: allocating stack frame region for .param "func_retval0" from 0x0 to 0xc
GPGPU-Sim PTX: allocating stack frame region for .param "_Z3mul10matrice3x46float3_param_0" from 0xc to 0x3c
GPGPU-Sim PTX: allocating stack frame region for .param "_Z3mul10matrice3x46float3_param_1" from 0x3c to 0x48
GPGPU-Sim PTX: instruction assembly for function '_Z3mul10matrice3x46float3'...   done.
GPGPU-Sim PTX: finding reconvergence points for '_Z3mul10matrice3x46float3'...
GPGPU-Sim PTX: Finding dominators for '_Z3mul10matrice3x46float3'...
GPGPU-Sim PTX: Finding immediate dominators for '_Z3mul10matrice3x46float3'...
GPGPU-Sim PTX: Finding postdominators for '_Z3mul10matrice3x46float3'...
GPGPU-Sim PTX: Finding immediate postdominators for '_Z3mul10matrice3x46float3'...
GPGPU-Sim PTX: pre-decoding instructions for '_Z3mul10matrice3x46float3'...
GPGPU-Sim PTX: reconvergence points for _Z3mul10matrice3x46float3...
GPGPU-Sim PTX: ... end of reconvergence points for _Z3mul10matrice3x46float3
GPGPU-Sim PTX: ... done pre-decoding instructions for '_Z3mul10matrice3x46float3'.
GPGPU-Sim PTX: allocating stack frame region for .param "func_retval0" from 0x0 to 0x10
GPGPU-Sim PTX: allocating stack frame region for .param "_Z3mul10matrice3x46float4_param_0" from 0x10 to 0x40
GPGPU-Sim PTX: allocating stack frame region for .param "_Z3mul10matrice3x46float4_param_1" from 0x40 to 0x50
GPGPU-Sim PTX: instruction assembly for function '_Z3mul10matrice3x46float4'...   done.
GPGPU-Sim PTX: finding reconvergence points for '_Z3mul10matrice3x46float4'...
GPGPU-Sim PTX: Finding dominators for '_Z3mul10matrice3x46float4'...
GPGPU-Sim PTX: Finding immediate dominators for '_Z3mul10matrice3x46float4'...
GPGPU-Sim PTX: Finding postdominators for '_Z3mul10matrice3x46float4'...
GPGPU-Sim PTX: Finding immediate postdominators for '_Z3mul10matrice3x46float4'...
GPGPU-Sim PTX: pre-decoding instructions for '_Z3mul10matrice3x46float4'...
GPGPU-Sim PTX: reconvergence points for _Z3mul10matrice3x46float4...
GPGPU-Sim PTX: ... end of reconvergence points for _Z3mul10matrice3x46float4
GPGPU-Sim PTX: ... done pre-decoding instructions for '_Z3mul10matrice3x46float4'.
GPGPU-Sim PTX: allocating stack frame region for .param "func_retval0" from 0x0 to 0x4
GPGPU-Sim PTX: allocating stack frame region for .param "_Z14rgbaFloatToInt6float4_param_0" from 0x4 to 0x14
GPGPU-Sim PTX: instruction assembly for function '_Z14rgbaFloatToInt6float4'...   done.
GPGPU-Sim PTX: finding reconvergence points for '_Z14rgbaFloatToInt6float4'...
GPGPU-Sim PTX: Finding dominators for '_Z14rgbaFloatToInt6float4'...
GPGPU-Sim PTX: Finding immediate dominators for '_Z14rgbaFloatToInt6float4'...
GPGPU-Sim PTX: Finding postdominators for '_Z14rgbaFloatToInt6float4'...
GPGPU-Sim PTX: Finding immediate postdominators for '_Z14rgbaFloatToInt6float4'...
GPGPU-Sim PTX: pre-decoding instructions for '_Z14rgbaFloatToInt6float4'...
GPGPU-Sim PTX: reconvergence points for _Z14rgbaFloatToInt6float4...
GPGPU-Sim PTX: ... end of reconvergence points for _Z14rgbaFloatToInt6float4
GPGPU-Sim PTX: ... done pre-decoding instructions for '_Z14rgbaFloatToInt6float4'.
GPGPU-Sim PTX: allocating stack frame region for .param "func_retval0" from 0x0 to 0x4
GPGPU-Sim PTX: allocating stack frame region for .param "_Z12notShadowRayP4Node6float3S1_f_param_0" from 0x4 to 0xc
GPGPU-Sim PTX: allocating stack frame region for .param "_Z12notShadowRayP4Node6float3S1_f_param_1" from 0xc to 0x18
GPGPU-Sim PTX: allocating stack frame region for .param "_Z12notShadowRayP4Node6float3S1_f_param_2" from 0x18 to 0x24
GPGPU-Sim PTX: allocating stack frame region for .param "_Z12notShadowRayP4Node6float3S1_f_param_3" from 0x24 to 0x28
GPGPU-Sim PTX: instruction assembly for function '_Z12notShadowRayP4Node6float3S1_f'...   done.
GPGPU-Sim PTX: finding reconvergence points for '_Z12notShadowRayP4Node6float3S1_f'...
GPGPU-Sim PTX: Finding dominators for '_Z12notShadowRayP4Node6float3S1_f'...
GPGPU-Sim PTX: Finding immediate dominators for '_Z12notShadowRayP4Node6float3S1_f'...
GPGPU-Sim PTX: Finding postdominators for '_Z12notShadowRayP4Node6float3S1_f'...
GPGPU-Sim PTX: Finding immediate postdominators for '_Z12notShadowRayP4Node6float3S1_f'...
GPGPU-Sim PTX: pre-decoding instructions for '_Z12notShadowRayP4Node6float3S1_f'...
GPGPU-Sim PTX: reconvergence points for _Z12notShadowRayP4Node6float3S1_f...
GPGPU-Sim PTX:  1 (potential) branch divergence @  PC=0x7c8 (_1.ptx:471) @%p2 bra BB9_4;
GPGPU-Sim PTX:    immediate post dominator      @  PC=0x938 (_1.ptx:551) mov.f32 %f26, %f78;
GPGPU-Sim PTX:  2 (potential) branch divergence @  PC=0x810 (_1.ptx:486) @%p3 bra BB9_7;
GPGPU-Sim PTX:    immediate post dominator      @  PC=0x938 (_1.ptx:551) mov.f32 %f26, %f78;
GPGPU-Sim PTX:  3 (potential) branch divergence @  PC=0x868 (_1.ptx:505) bra.uni BB9_8;
GPGPU-Sim PTX:    immediate post dominator      @  PC=0x938 (_1.ptx:551) mov.f32 %f26, %f78;
GPGPU-Sim PTX:  4 (potential) branch divergence @  PC=0x8d8 (_1.ptx:529) @%p6 bra BB9_7;
GPGPU-Sim PTX:    immediate post dominator      @  PC=0x938 (_1.ptx:551) mov.f32 %f26, %f78;
GPGPU-Sim PTX:  5 (potential) branch divergence @  PC=0x8f8 (_1.ptx:536) @%p7 bra BB9_7;
GPGPU-Sim PTX:    immediate post dominator      @  PC=0x938 (_1.ptx:551) mov.f32 %f26, %f78;
GPGPU-Sim PTX:  6 (potential) branch divergence @  PC=0x928 (_1.ptx:545) bra.uni BB9_8;
GPGPU-Sim PTX:    immediate post dominator      @  PC=0x938 (_1.ptx:551) mov.f32 %f26, %f78;
GPGPU-Sim PTX:  7 (potential) branch divergence @  PC=0x948 (_1.ptx:554) @%p8 bra BB9_10;
GPGPU-Sim PTX:    immediate post dominator      @  PC=0x9a8 (_1.ptx:573) mov.f32 %f27, %f77;
GPGPU-Sim PTX:  8 (potential) branch divergence @  PC=0x988 (_1.ptx:563) @%p9 bra BB9_11;
GPGPU-Sim PTX:    immediate post dominator      @  PC=0x9a8 (_1.ptx:573) mov.f32 %f27, %f77;
GPGPU-Sim PTX:  9 (potential) branch divergence @  PC=0x998 (_1.ptx:567) bra.uni BB9_12;
GPGPU-Sim PTX:    immediate post dominator      @  PC=0x9a8 (_1.ptx:573) mov.f32 %f27, %f77;
GPGPU-Sim PTX: 10 (potential) branch divergence @  PC=0x9d0 (_1.ptx:581) @%p12 bra BB9_1;
GPGPU-Sim PTX:    immediate post dominator      @  PC=0x9d8 (_1.ptx:584) selp.u32 %r14, 1, 0, %p11;
GPGPU-Sim PTX: ... end of reconvergence points for _Z12notShadowRayP4Node6float3S1_f
GPGPU-Sim PTX: ... done pre-decoding instructions for '_Z12notShadowRayP4Node6float3S1_f'.
GPGPU-Sim PTX: allocating stack frame region for .param "func_retval0" from 0x0 to 0x4
GPGPU-Sim PTX: allocating stack frame region for .param "_Z15float2int_pow20f_param_0" from 0x4 to 0x8
GPGPU-Sim PTX: instruction assembly for function '_Z15float2int_pow20f'...   done.
GPGPU-Sim PTX: finding reconvergence points for '_Z15float2int_pow20f'...
GPGPU-Sim PTX: Finding dominators for '_Z15float2int_pow20f'...
GPGPU-Sim PTX: Finding immediate dominators for '_Z15float2int_pow20f'...
GPGPU-Sim PTX: Finding postdominators for '_Z15float2int_pow20f'...
GPGPU-Sim PTX: Finding immediate postdominators for '_Z15float2int_pow20f'...
GPGPU-Sim PTX: pre-decoding instructions for '_Z15float2int_pow20f'...
GPGPU-Sim PTX: reconvergence points for _Z15float2int_pow20f...
GPGPU-Sim PTX: ... end of reconvergence points for _Z15float2int_pow20f
GPGPU-Sim PTX: ... done pre-decoding instructions for '_Z15float2int_pow20f'.
GPGPU-Sim PTX: allocating stack frame region for .param "func_retval0" from 0x0 to 0x4
GPGPU-Sim PTX: allocating stack frame region for .param "_Z15float2int_pow50f_param_0" from 0x4 to 0x8
GPGPU-Sim PTX: instruction assembly for function '_Z15float2int_pow50f'...   done.
GPGPU-Sim PTX: finding reconvergence points for '_Z15float2int_pow50f'...
GPGPU-Sim PTX: Finding dominators for '_Z15float2int_pow50f'...
GPGPU-Sim PTX: Finding immediate dominators for '_Z15float2int_pow50f'...
GPGPU-Sim PTX: Finding postdominators for '_Z15float2int_pow50f'...
GPGPU-Sim PTX: Finding immediate postdominators for '_Z15float2int_pow50f'...
GPGPU-Sim PTX: pre-decoding instructions for '_Z15float2int_pow50f'...
GPGPU-Sim PTX: reconvergence points for _Z15float2int_pow50f...
GPGPU-Sim PTX: ... end of reconvergence points for _Z15float2int_pow50f
GPGPU-Sim PTX: ... done pre-decoding instructions for '_Z15float2int_pow50f'.
GPGPU-Sim PTX: allocating stack frame region for .local "__local_depot12" from 0x0 to 0x50
GPGPU-Sim PTX: instruction assembly for function '_Z6renderPjP4Nodejjff'...   done.
GPGPU-Sim PTX: finding reconvergence points for '_Z6renderPjP4Nodejjff'...
GPGPU-Sim PTX: Finding dominators for '_Z6renderPjP4Nodejjff'...
GPGPU-Sim PTX: Finding immediate dominators for '_Z6renderPjP4Nodejjff'...
GPGPU-Sim PTX: Finding postdominators for '_Z6renderPjP4Nodejjff'...
GPGPU-Sim PTX: Finding immediate postdominators for '_Z6renderPjP4Nodejjff'...
GPGPU-Sim PTX: pre-decoding instructions for '_Z6renderPjP4Nodejjff'...
GPGPU-Sim PTX: reconvergence points for _Z6renderPjP4Nodejjff...
GPGPU-Sim PTX:  1 (potential) branch divergence @  PC=0xd18 (_1.ptx:737) @%p10 bra BB12_2;
GPGPU-Sim PTX:    immediate post dominator      @ 
GPGPU-Sim PTX:  2 (potential) branch divergence @  PC=0xfb0 (_1.ptx:851) @%p12 bra BB12_6;
GPGPU-Sim PTX:    immediate post dominator      @  PC=0x1120 (_1.ptx:932) setp.lt.f32 %p18, %f694, 0f461C4000;
GPGPU-Sim PTX:  3 (potential) branch divergence @  PC=0xff8 (_1.ptx:866) @%p13 bra BB12_9;
GPGPU-Sim PTX:    immediate post dominator      @  PC=0x1120 (_1.ptx:932) setp.lt.f32 %p18, %f694, 0f461C4000;
GPGPU-Sim PTX:  4 (potential) branch divergence @  PC=0x1050 (_1.ptx:885) bra.uni BB12_10;
GPGPU-Sim PTX:    immediate post dominator      @  PC=0x1120 (_1.ptx:932) setp.lt.f32 %p18, %f694, 0f461C4000;
GPGPU-Sim PTX:  5 (potential) branch divergence @  PC=0x10c0 (_1.ptx:909) @%p16 bra BB12_9;
GPGPU-Sim PTX:    immediate post dominator      @  PC=0x1120 (_1.ptx:932) setp.lt.f32 %p18, %f694, 0f461C4000;
GPGPU-Sim PTX:  6 (potential) branch divergence @  PC=0x10e0 (_1.ptx:916) @%p17 bra BB12_9;
GPGPU-Sim PTX:    immediate post dominator      @  PC=0x1120 (_1.ptx:932) setp.lt.f32 %p18, %f694, 0f461C4000;
GPGPU-Sim PTX:  7 (potential) branch divergence @  PC=0x1110 (_1.ptx:925) bra.uni BB12_10;
GPGPU-Sim PTX:    immediate post dominator      @  PC=0x1120 (_1.ptx:932) setp.lt.f32 %p18, %f694, 0f461C4000;
GPGPU-Sim PTX:  8 (potential) branch divergence @  PC=0x1160 (_1.ptx:942) @%p21 bra BB12_13;
GPGPU-Sim PTX:    immediate post dominator      @  PC=0x12d0 (_1.ptx:1023) setp.lt.f32 %p27, %f695, %f68;
GPGPU-Sim PTX:  9 (potential) branch divergence @  PC=0x11a8 (_1.ptx:957) @%p22 bra BB12_16;
GPGPU-Sim PTX:    immediate post dominator      @  PC=0x12d0 (_1.ptx:1023) setp.lt.f32 %p27, %f695, %f68;
GPGPU-Sim PTX: 10 (potential) branch divergence @  PC=0x1200 (_1.ptx:976) bra.uni BB12_17;
GPGPU-Sim PTX:    immediate post dominator      @  PC=0x12d0 (_1.ptx:1023) setp.lt.f32 %p27, %f695, %f68;
GPGPU-Sim PTX: 11 (potential) branch divergence @  PC=0x1270 (_1.ptx:1000) @%p25 bra BB12_16;
GPGPU-Sim PTX:    immediate post dominator      @  PC=0x12d0 (_1.ptx:1023) setp.lt.f32 %p27, %f695, %f68;
GPGPU-Sim PTX: 12 (potential) branch divergence @  PC=0x1290 (_1.ptx:1007) @%p26 bra BB12_16;
GPGPU-Sim PTX:    immediate post dominator      @  PC=0x12d0 (_1.ptx:1023) setp.lt.f32 %p27, %f695, %f68;
GPGPU-Sim PTX: 13 (potential) branch divergence @  PC=0x12c0 (_1.ptx:1016) bra.uni BB12_17;
GPGPU-Sim PTX:    immediate post dominator      @  PC=0x12d0 (_1.ptx:1023) setp.lt.f32 %p27, %f695, %f68;
GPGPU-Sim PTX: 14 (potential) branch divergence @  PC=0x1310 (_1.ptx:1033) @%p30 bra BB12_20;
GPGPU-Sim PTX:    immediate post dominator      @  PC=0x1480 (_1.ptx:1114) setp.lt.f32 %p36, %f696, %f83;
GPGPU-Sim PTX: 15 (potential) branch divergence @  PC=0x1358 (_1.ptx:1048) @%p31 bra BB12_23;
GPGPU-Sim PTX:    immediate post dominator      @  PC=0x1480 (_1.ptx:1114) setp.lt.f32 %p36, %f696, %f83;
GPGPU-Sim PTX: 16 (potential) branch divergence @  PC=0x13b0 (_1.ptx:1067) bra.uni BB12_24;
GPGPU-Sim PTX:    immediate post dominator      @  PC=0x1480 (_1.ptx:1114) setp.lt.f32 %p36, %f696, %f83;
GPGPU-Sim PTX: 17 (potential) branch divergence @  PC=0x1420 (_1.ptx:1091) @%p34 bra BB12_23;
GPGPU-Sim PTX:    immediate post dominator      @  PC=0x1480 (_1.ptx:1114) setp.lt.f32 %p36, %f696, %f83;
GPGPU-Sim PTX: 18 (potential) branch divergence @  PC=0x1440 (_1.ptx:1098) @%p35 bra BB12_23;
GPGPU-Sim PTX:    immediate post dominator      @  PC=0x1480 (_1.ptx:1114) setp.lt.f32 %p36, %f696, %f83;
GPGPU-Sim PTX: 19 (potential) branch divergence @  PC=0x1470 (_1.ptx:1107) bra.uni BB12_24;
GPGPU-Sim PTX:    immediate post dominator      @  PC=0x1480 (_1.ptx:1114) setp.lt.f32 %p36, %f696, %f83;
GPGPU-Sim PTX: 20 (potential) branch divergence @  PC=0x14c0 (_1.ptx:1124) @%p39 bra BB12_27;
GPGPU-Sim PTX:    immediate post dominator      @  PC=0x1630 (_1.ptx:1205) setp.lt.f32 %p45, %f697, %f98;
GPGPU-Sim PTX: 21 (potential) branch divergence @  PC=0x1508 (_1.ptx:1139) @%p40 bra BB12_30;
GPGPU-Sim PTX:    immediate post dominator      @  PC=0x1630 (_1.ptx:1205) setp.lt.f32 %p45, %f697, %f98;
GPGPU-Sim PTX: 22 (potential) branch divergence @  PC=0x1560 (_1.ptx:1158) bra.uni BB12_31;
GPGPU-Sim PTX:    immediate post dominator      @  PC=0x1630 (_1.ptx:1205) setp.lt.f32 %p45, %f697, %f98;
GPGPU-Sim PTX: 23 (potential) branch divergence @  PC=0x15d0 (_1.ptx:1182) @%p43 bra BB12_30;
GPGPU-Sim PTX:    immediate post dominator      @  PC=0x1630 (_1.ptx:1205) setp.lt.f32 %p45, %f697, %f98;
GPGPU-Sim PTX: 24 (potential) branch divergence @  PC=0x15f0 (_1.ptx:1189) @%p44 bra BB12_30;
GPGPU-Sim PTX:    immediate post dominator      @  PC=0x1630 (_1.ptx:1205) setp.lt.f32 %p45, %f697, %f98;
GPGPU-Sim PTX: 25 (potential) branch divergence @  PC=0x1620 (_1.ptx:1198) bra.uni BB12_31;
GPGPU-Sim PTX:    immediate post dominator      @  PC=0x1630 (_1.ptx:1205) setp.lt.f32 %p45, %f697, %f98;
GPGPU-Sim PTX: 26 (potential) branch divergence @  PC=0x1670 (_1.ptx:1214) @%p50 bra BB12_32;
GPGPU-Sim PTX:    immediate post dominator      @  PC=0x22f8 (_1.ptx:1857) add.s32 %r130, %r130, 1;
GPGPU-Sim PTX: 27 (potential) branch divergence @  PC=0x1678 (_1.ptx:1215) bra.uni BB12_75;
GPGPU-Sim PTX:    immediate post dominator      @  PC=0x22f8 (_1.ptx:1857) add.s32 %r130, %r130, 1;
GPGPU-Sim PTX: 28 (potential) branch divergence @  PC=0x17b0 (_1.ptx:1267) @%p51 bra BB12_34;
GPGPU-Sim PTX:    immediate post dominator      @  PC=0x1830 (_1.ptx:1293) mov.f32 %f139, %f706;
GPGPU-Sim PTX: 29 (potential) branch divergence @  PC=0x17d8 (_1.ptx:1275) bra.uni BB12_35;
GPGPU-Sim PTX:    immediate post dominator      @  PC=0x1830 (_1.ptx:1293) mov.f32 %f139, %f706;
GPGPU-Sim PTX: 30 (potential) branch divergence @  PC=0x1868 (_1.ptx:1301) @%p52 bra BB12_37;
GPGPU-Sim PTX:    immediate post dominator      @  PC=0x18c0 (_1.ptx:1318) mov.f32 %f148, %f705;
GPGPU-Sim PTX: 31 (potential) branch divergence @  PC=0x1888 (_1.ptx:1306) bra.uni BB12_38;
GPGPU-Sim PTX:    immediate post dominator      @  PC=0x18c0 (_1.ptx:1318) mov.f32 %f148, %f705;
GPGPU-Sim PTX: 32 (potential) branch divergence @  PC=0x1930 (_1.ptx:1334) @%p53 bra BB12_74;
GPGPU-Sim PTX:    immediate post dominator      @  PC=0x2248 (_1.ptx:1828) add.f32 %f531, %f137, %f137;
GPGPU-Sim PTX: 33 (potential) branch divergence @  PC=0x1998 (_1.ptx:1355) @%p54 bra BB12_43;
GPGPU-Sim PTX:    immediate post dominator      @  PC=0x1b08 (_1.ptx:1435) mov.f32 %f169, %f709;
GPGPU-Sim PTX: 34 (potential) branch divergence @  PC=0x19e0 (_1.ptx:1370) @%p55 bra BB12_46;
GPGPU-Sim PTX:    immediate post dominator      @  PC=0x1b08 (_1.ptx:1435) mov.f32 %f169, %f709;
GPGPU-Sim PTX: 35 (potential) branch divergence @  PC=0x1a38 (_1.ptx:1389) bra.uni BB12_47;
GPGPU-Sim PTX:    immediate post dominator      @  PC=0x1b08 (_1.ptx:1435) mov.f32 %f169, %f709;
GPGPU-Sim PTX: 36 (potential) branch divergence @  PC=0x1aa8 (_1.ptx:1413) @%p58 bra BB12_46;
GPGPU-Sim PTX:    immediate post dominator      @  PC=0x1b08 (_1.ptx:1435) mov.f32 %f169, %f709;
GPGPU-Sim PTX: 37 (potential) branch divergence @  PC=0x1ac8 (_1.ptx:1420) @%p59 bra BB12_46;
GPGPU-Sim PTX:    immediate post dominator      @  PC=0x1b08 (_1.ptx:1435) mov.f32 %f169, %f709;
GPGPU-Sim PTX: 38 (potential) branch divergence @  PC=0x1af8 (_1.ptx:1429) bra.uni BB12_47;
GPGPU-Sim PTX:    immediate post dominator      @  PC=0x1b08 (_1.ptx:1435) mov.f32 %f169, %f709;
GPGPU-Sim PTX: 39 (potential) branch divergence @  PC=0x1b18 (_1.ptx:1438) @%p60 bra BB12_49;
GPGPU-Sim PTX:    immediate post dominator      @  PC=0x1b78 (_1.ptx:1457) mov.f32 %f170, %f708;
GPGPU-Sim PTX: 40 (potential) branch divergence @  PC=0x1b58 (_1.ptx:1447) @%p61 bra BB12_50;
GPGPU-Sim PTX:    immediate post dominator      @  PC=0x1b78 (_1.ptx:1457) mov.f32 %f170, %f708;
GPGPU-Sim PTX: 41 (potential) branch divergence @  PC=0x1b68 (_1.ptx:1451) bra.uni BB12_51;
GPGPU-Sim PTX:    immediate post dominator      @  PC=0x1b78 (_1.ptx:1457) mov.f32 %f170, %f708;
GPGPU-Sim PTX: 42 (potential) branch divergence @  PC=0x1ba0 (_1.ptx:1465) @%p64 bra BB12_40;
GPGPU-Sim PTX:    immediate post dominator      @  PC=0x1ba8 (_1.ptx:1468) setp.neu.f32 %p65, %f170, 0f00000000;
GPGPU-Sim PTX: 43 (potential) branch divergence @  PC=0x1bb0 (_1.ptx:1469) @%p65 bra BB12_74;
GPGPU-Sim PTX:    immediate post dominator      @  PC=0x2248 (_1.ptx:1828) add.f32 %f531, %f137, %f137;
GPGPU-Sim PTX: 44 (potential) branch divergence @  PC=0x1cd0 (_1.ptx:1516) @%p66 bra BB12_72;
GPGPU-Sim PTX:    immediate post dominator      @  PC=0x2200 (_1.ptx:1812) mov.f32 %f187, %f711;
GPGPU-Sim PTX: 45 (potential) branch divergence @  PC=0x1ce8 (_1.ptx:1522) @%p67 bra BB12_71;
GPGPU-Sim PTX:    immediate post dominator      @  PC=0x2200 (_1.ptx:1812) mov.f32 %f187, %f711;
GPGPU-Sim PTX: 46 (potential) branch divergence @  PC=0x1d00 (_1.ptx:1528) @%p68 bra BB12_71;
GPGPU-Sim PTX:    immediate post dominator      @  PC=0x2200 (_1.ptx:1812) mov.f32 %f187, %f711;
GPGPU-Sim PTX: 47 (potential) branch divergence @  PC=0x1d10 (_1.ptx:1532) @%p69 bra BB12_70;
GPGPU-Sim PTX:    immediate post dominator      @  PC=0x2200 (_1.ptx:1812) mov.f32 %f187, %f711;
GPGPU-Sim PTX: 48 (potential) branch divergence @  PC=0x1d20 (_1.ptx:1537) @%p70 bra BB12_68;
GPGPU-Sim PTX:    immediate post dominator      @  PC=0x2200 (_1.ptx:1812) mov.f32 %f187, %f711;
GPGPU-Sim PTX: 49 (potential) branch divergence @  PC=0x1d50 (_1.ptx:1549) @%p71 bra BB12_67;
GPGPU-Sim PTX:    immediate post dominator      @  PC=0x2200 (_1.ptx:1812) mov.f32 %f187, %f711;
GPGPU-Sim PTX: 50 (potential) branch divergence @  PC=0x1d68 (_1.ptx:1554) @%p72 bra BB12_66;
GPGPU-Sim PTX:    immediate post dominator      @  PC=0x2200 (_1.ptx:1812) mov.f32 %f187, %f711;
GPGPU-Sim PTX: 51 (potential) branch divergence @  PC=0x1d80 (_1.ptx:1559) @%p73 bra BB12_62;
GPGPU-Sim PTX:    immediate post dominator      @  PC=0x2200 (_1.ptx:1812) mov.f32 %f187, %f711;
GPGPU-Sim PTX: 52 (potential) branch divergence @  PC=0x1d98 (_1.ptx:1565) @%p74 bra BB12_65;
GPGPU-Sim PTX:    immediate post dominator      @  PC=0x2200 (_1.ptx:1812) mov.f32 %f187, %f711;
GPGPU-Sim PTX: 53 (potential) branch divergence @  PC=0x20d8 (_1.ptx:1740) @%p81 bra BB12_63;
GPGPU-Sim PTX:    immediate post dominator      @  PC=0x20f0 (_1.ptx:1749) mov.b32 %r87, %f710;
GPGPU-Sim PTX: 54 (potential) branch divergence @  PC=0x20e0 (_1.ptx:1741) bra.uni BB12_64;
GPGPU-Sim PTX:    immediate post dominator      @  PC=0x20f0 (_1.ptx:1749) mov.b32 %r87, %f710;
GPGPU-Sim PTX: 55 (potential) branch divergence @  PC=0x2120 (_1.ptx:1757) bra.uni BB12_73;
GPGPU-Sim PTX:    immediate post dominator      @  PC=0x2200 (_1.ptx:1812) mov.f32 %f187, %f711;
GPGPU-Sim PTX: 56 (potential) branch divergence @  PC=0x2138 (_1.ptx:1763) bra.uni BB12_73;
GPGPU-Sim PTX:    immediate post dominator      @  PC=0x2200 (_1.ptx:1812) mov.f32 %f187, %f711;
GPGPU-Sim PTX: 57 (potential) branch divergence @  PC=0x2170 (_1.ptx:1776) bra.uni BB12_73;
GPGPU-Sim PTX:    immediate post dominator      @  PC=0x2200 (_1.ptx:1812) mov.f32 %f187, %f711;
GPGPU-Sim PTX: 58 (potential) branch divergence @  PC=0x2190 (_1.ptx:1783) bra.uni BB12_73;
GPGPU-Sim PTX:    immediate post dominator      @  PC=0x2200 (_1.ptx:1812) mov.f32 %f187, %f711;
GPGPU-Sim PTX: 59 (potential) branch divergence @  PC=0x21a0 (_1.ptx:1788) @%p83 bra BB12_72;
GPGPU-Sim PTX:    immediate post dominator      @  PC=0x2200 (_1.ptx:1812) mov.f32 %f187, %f711;
GPGPU-Sim PTX: 60 (potential) branch divergence @  PC=0x21c8 (_1.ptx:1796) bra.uni BB12_73;
GPGPU-Sim PTX:    immediate post dominator      @  PC=0x2200 (_1.ptx:1812) mov.f32 %f187, %f711;
GPGPU-Sim PTX: 61 (potential) branch divergence @  PC=0x21d8 (_1.ptx:1800) bra.uni BB12_73;
GPGPU-Sim PTX:    immediate post dominator      @  PC=0x2200 (_1.ptx:1812) mov.f32 %f187, %f711;
GPGPU-Sim PTX: 62 (potential) branch divergence @  PC=0x21f0 (_1.ptx:1806) bra.uni BB12_73;
GPGPU-Sim PTX:    immediate post dominator      @  PC=0x2200 (_1.ptx:1812) mov.f32 %f187, %f711;
GPGPU-Sim PTX: 63 (potential) branch divergence @  PC=0x2318 (_1.ptx:1863) @%p87 bra BB12_3;
GPGPU-Sim PTX:    immediate post dominator      @  PC=0x2320 (_1.ptx:1865) add.s32 %r94, %r132, -1;
GPGPU-Sim PTX: 64 (potential) branch divergence @  PC=0x2330 (_1.ptx:1868) @%p88 bra BB12_79;
GPGPU-Sim PTX:    immediate post dominator      @  PC=0x23b8 (_1.ptx:1893) ld.local.v4.f32 {%f571, %f572, %f573, %f574}, [%rl3];
GPGPU-Sim PTX: 65 (potential) branch divergence @  PC=0x23b0 (_1.ptx:1889) @%p89 bra BB12_78;
GPGPU-Sim PTX:    immediate post dominator      @  PC=0x23b8 (_1.ptx:1893) ld.local.v4.f32 {%f571, %f572, %f573, %f574}, [%rl3];
GPGPU-Sim PTX: ... end of reconvergence points for _Z6renderPjP4Nodejjff
GPGPU-Sim PTX: ... done pre-decoding instructions for '_Z6renderPjP4Nodejjff'.
GPGPU-Sim PTX: allocating stack frame region for .param "_ZN4dim3C1Ejjj_param_0" from 0x0 to 0x8
GPGPU-Sim PTX: allocating stack frame region for .param "_ZN4dim3C1Ejjj_param_1" from 0x8 to 0xc
GPGPU-Sim PTX: allocating stack frame region for .param "_ZN4dim3C1Ejjj_param_2" from 0xc to 0x10
GPGPU-Sim PTX: allocating stack frame region for .param "_ZN4dim3C1Ejjj_param_3" from 0x10 to 0x14
GPGPU-Sim PTX: instruction assembly for function '_ZN4dim3C1Ejjj'...   done.
GPGPU-Sim PTX: finding reconvergence points for '_ZN4dim3C1Ejjj'...
GPGPU-Sim PTX: Finding dominators for '_ZN4dim3C1Ejjj'...
GPGPU-Sim PTX: Finding immediate dominators for '_ZN4dim3C1Ejjj'...
GPGPU-Sim PTX: Finding postdominators for '_ZN4dim3C1Ejjj'...
GPGPU-Sim PTX: Finding immediate postdominators for '_ZN4dim3C1Ejjj'...
GPGPU-Sim PTX: pre-decoding instructions for '_ZN4dim3C1Ejjj'...
GPGPU-Sim PTX: reconvergence points for _ZN4dim3C1Ejjj...
GPGPU-Sim PTX: ... end of reconvergence points for _ZN4dim3C1Ejjj
GPGPU-Sim PTX: ... done pre-decoding instructions for '_ZN4dim3C1Ejjj'.
GPGPU-Sim PTX: finished parsing EMBEDDED .ptx file _1.ptx
Adding _cuobjdump_2.ptx with cubin handle 1
GPGPU-Sim PTX: extracting embedded .ptx to temporary file "_ptx_RuEyeE"
Running: cat _ptx_RuEyeE | sed 's/.version 1.5/.version 1.4/' | sed 's/, texmode_independent//' | sed 's/\(\.extern \.const\[1\] .b8 \w\+\)\[\]/\1\[1\]/' | sed 's/const\[.\]/const\[0\]/g' > _ptx2_IWZnFo
GPGPU-Sim PTX: generating ptxinfo using "$CUDA_INSTALL_PATH/bin/ptxas --gpu-name=sm_20 -v _ptx2_IWZnFo --output-file  /dev/null 2> _ptx_RuEyeEinfo"
GPGPU-Sim PTX: Kernel '_Z6renderPjP4Nodejjff' : regs=43, lmem=0, smem=0, cmem=324
GPGPU-Sim PTX: removing ptxinfo using "rm -f _ptx_RuEyeE _ptx2_IWZnFo _ptx_RuEyeEinfo"
GPGPU-Sim PTX: loading globals with explicit initializers... 
GPGPU-Sim PTX: finished loading globals (0 bytes total).
GPGPU-Sim PTX: loading constants with explicit initializers...  done.
GPGPU-Sim PTX: __cudaRegisterVar: hostVar = 0x646800; deviceAddress = MView; deviceName = MView
GPGPU-Sim PTX: __cudaRegisterVar: Registering const memory space of 48 bytes
GPGPU-Sim PTX registering constant MView (48 bytes) to name mapping
GPGPU-Sim PTX: __cudaRegisterVar: hostVar = 0x646760; deviceAddress = cnode; deviceName = cnode
GPGPU-Sim PTX: __cudaRegisterVar: Registering const memory space of 160 bytes
GPGPU-Sim PTX registering constant cnode (160 bytes) to name mapping
GPGPU-Sim PTX: cudaMemcpyToSymbol: symbol = 0x646760
GPGPU-Sim PTX: starting gpgpu_ptx_sim_memcpy_symbol with hostVar 0x0x646760
GPGPU-Sim PTX: gpgpu_ptx_sim_memcpy_symbol: Found PTX symbol w/ hostVar=0x646760
GPGPU-Sim PTX: gpgpu_ptx_sim_memcpy_symbol: copying const memory 160 bytes  to  symbol cnode+0 @0x180 ...
GPGPU-Sim PTX: cudaMemcpyToSymbol: symbol = 0x646800
GPGPU-Sim PTX: starting gpgpu_ptx_sim_memcpy_symbol with hostVar 0x0x646800
GPGPU-Sim PTX: gpgpu_ptx_sim_memcpy_symbol: Found PTX symbol w/ hostVar=0x646800
GPGPU-Sim PTX: gpgpu_ptx_sim_memcpy_symbol: copying const memory 48 bytes  to  symbol MView+0 @0x100 ...

GPGPU-Sim PTX: cudaLaunch for 0x0x40be60 (mode=performance simulation) on stream 0
GPGPU-Sim PTX: pushing kernel '_Z6renderPjP4Nodejjff' to stream 0, gridDim= (1,2,1) blockDim = (16,8,1) 
kernel '_Z6renderPjP4Nodejjff' transfer to GPU hardware scheduler
GPGPU-Sim uArch: Shader 1 bind to kernel 1 '_Z6renderPjP4Nodejjff'
GPGPU-Sim uArch: CTA/core = 5, limited by: regs
GPGPU-Sim uArch: core:  1, cta: 0 initialized @(1,0)
GPGPU-Sim uArch: Shader 2 bind to kernel 1 '_Z6renderPjP4Nodejjff'
GPGPU-Sim uArch: core:  2, cta: 0 initialized @(1,0)
mem inter-issue at 271
mem inter-issue at 272
mem inter-issue at 273
mem inter-issue at 274
mem inter-issue at 277
mem inter-issue at 278
mem inter-issue at 279
mem inter-issue at 280
GPGPU-Sim uArch: cycles simulated: 500  inst.: 256 (ipc= 0.5) sim_rate=256 (inst/sec) elapsed = 0:0:00:01 / Sun Apr 26 16:35:48 2020
mem inter-issue at 552
mem inter-issue at 553
mem inter-issue at 553
mem inter-issue at 554
mem inter-issue at 554
mem inter-issue at 555
mem inter-issue at 555
mem inter-issue at 556
mem inter-issue at 556
mem inter-issue at 556
mem inter-issue at 557
mem inter-issue at 557
mem inter-issue at 557
mem inter-issue at 557
mem inter-issue at 558
mem inter-issue at 558
mem inter-issue at 558
mem inter-issue at 559
mem inter-issue at 559
mem inter-issue at 560
mem inter-issue at 560
mem inter-issue at 561
mem inter-issue at 561
mem inter-issue at 562
mem inter-issue at 562
mem inter-issue at 563
mem inter-issue at 564
mem inter-issue at 564
mem inter-issue at 566
mem inter-issue at 567
mem inter-issue at 568
mem inter-issue at 568
mem inter-issue at 841
mem inter-issue at 842
mem inter-issue at 843
mem inter-issue at 844
mem inter-issue at 847
mem inter-issue at 847
mem inter-issue at 848
mem inter-issue at 848
mem inter-issue at 849
mem inter-issue at 849
mem inter-issue at 850
mem inter-issue at 850
mem inter-issue at 850
mem inter-issue at 851
mem inter-issue at 851
mem inter-issue at 852
mem inter-issue at 853
mem inter-issue at 854
mem inter-issue at 854
mem inter-issue at 855
mem inter-issue at 855
mem inter-issue at 855
mem inter-issue at 856
mem inter-issue at 856
mem inter-issue at 856
mem inter-issue at 857
mem inter-issue at 857
mem inter-issue at 857
mem inter-issue at 857
mem inter-issue at 858
mem inter-issue at 858
mem inter-issue at 858
mem inter-issue at 860
mem inter-issue at 861
mem inter-issue at 861
mem inter-issue at 861
mem inter-issue at 862
mem inter-issue at 862
mem inter-issue at 862
mem inter-issue at 862
mem inter-issue at 863
mem inter-issue at 863
mem inter-issue at 864
mem inter-issue at 865
mem inter-issue at 865
mem inter-issue at 866
mem inter-issue at 867
mem inter-issue at 868
mem inter-issue at 868
mem inter-issue at 869
mem inter-issue at 869
mem inter-issue at 870
mem inter-issue at 870
mem inter-issue at 872
mem inter-issue at 876
mem inter-issue at 876
mem inter-issue at 878
mem inter-issue at 879
mem inter-issue at 879
mem inter-issue at 880
mem inter-issue at 881
mem inter-issue at 882
mem inter-issue at 883
mem inter-issue at 883
mem inter-issue at 884
mem inter-issue at 884
mem inter-issue at 884
mem inter-issue at 885
mem inter-issue at 885
mem inter-issue at 886
mem inter-issue at 886
mem inter-issue at 886
mem inter-issue at 887
mem inter-issue at 888
mem inter-issue at 889
mem inter-issue at 890
mem inter-issue at 890
mem inter-issue at 891
mem inter-issue at 892
mem inter-issue at 893
mem inter-issue at 1178
mem inter-issue at 1179
mem inter-issue at 1180
mem inter-issue at 1180
mem inter-issue at 1181
mem inter-issue at 1181
mem inter-issue at 1182
mem inter-issue at 1183
mem inter-issue at 1184
mem inter-issue at 1185
mem inter-issue at 1186
mem inter-issue at 1186
mem inter-issue at 1187
mem inter-issue at 1187
mem inter-issue at 1187
mem inter-issue at 1188
mem inter-issue at 1189
mem inter-issue at 1189
mem inter-issue at 1189
mem inter-issue at 1191
mem inter-issue at 1193
mem inter-issue at 1195
mem inter-issue at 1195
mem inter-issue at 1195
mem inter-issue at 1197
mem inter-issue at 1197
mem inter-issue at 1197
mem inter-issue at 1199
mem inter-issue at 1201
mem inter-issue at 1203
mem inter-issue at 1203
mem inter-issue at 1205
mem inter-issue at 1211
mem inter-issue at 1213
mem inter-issue at 1214
mem inter-issue at 1215
mem inter-issue at 1216
mem inter-issue at 1217
mem inter-issue at 1217
mem inter-issue at 1218
mem inter-issue at 1219
mem inter-issue at 1220
mem inter-issue at 1220
mem inter-issue at 1221
mem inter-issue at 1222
mem inter-issue at 1223
mem inter-issue at 1224
mem inter-issue at 1226
mem inter-issue at 1229
mem inter-issue at 1234
mem inter-issue at 1235
mem inter-issue at 1237
mem inter-issue at 1240
mem inter-issue at 1240
mem inter-issue at 1243
mem inter-issue at 1246
mem inter-issue at 1249
mem inter-issue at 1251
mem inter-issue at 1254
mem inter-issue at 1255
mem inter-issue at 1256
mem inter-issue at 1257
mem inter-issue at 1257
mem inter-issue at 1259
mem inter-issue at 1260
mem inter-issue at 1260
mem inter-issue at 1262
mem inter-issue at 1262
mem inter-issue at 1263
mem inter-issue at 1265
mem inter-issue at 1266
mem inter-issue at 1268
mem inter-issue at 1530
mem inter-issue at 1531
mem inter-issue at 1532
mem inter-issue at 1533
mem inter-issue at 1534
mem inter-issue at 1535
mem inter-issue at 1536
mem inter-issue at 1537
mem inter-issue at 1537
mem inter-issue at 1538
mem inter-issue at 1538
mem inter-issue at 1539
mem inter-issue at 1539
mem inter-issue at 1539
mem inter-issue at 1540
mem inter-issue at 1540
mem inter-issue at 1541
mem inter-issue at 1541
mem inter-issue at 1542
mem inter-issue at 1543
mem inter-issue at 1543
mem inter-issue at 1544
mem inter-issue at 1544
mem inter-issue at 1545
mem inter-issue at 1545
mem inter-issue at 1545
mem inter-issue at 1546
mem inter-issue at 1546
mem inter-issue at 1547
mem inter-issue at 1547
mem inter-issue at 1548
mem inter-issue at 1549
mem inter-issue at 1550
mem inter-issue at 1552
mem inter-issue at 1553
mem inter-issue at 1554
mem inter-issue at 1554
mem inter-issue at 1555
mem inter-issue at 1561
mem inter-issue at 1561
mem inter-issue at 1562
mem inter-issue at 1563
mem inter-issue at 1563
mem inter-issue at 1564
mem inter-issue at 1564
mem inter-issue at 1565
mem inter-issue at 1565
mem inter-issue at 1565
mem inter-issue at 1565
mem inter-issue at 1567
mem inter-issue at 1567
mem inter-issue at 1568
mem inter-issue at 1568
mem inter-issue at 1568
mem inter-issue at 1569
mem inter-issue at 1571
mem inter-issue at 1572
mem inter-issue at 1572
mem inter-issue at 1573
mem inter-issue at 1573
mem inter-issue at 1574
mem inter-issue at 1574
mem inter-issue at 1575
mem inter-issue at 1575
mem inter-issue at 1576
mem inter-issue at 1576
mem inter-issue at 1576
mem inter-issue at 1577
mem inter-issue at 1577
mem inter-issue at 1578
mem inter-issue at 1579
mem inter-issue at 1579
mem inter-issue at 1579
mem inter-issue at 1580
mem inter-issue at 1580
mem inter-issue at 1580
mem inter-issue at 1581
mem inter-issue at 1582
mem inter-issue at 1583
mem inter-issue at 1583
mem inter-issue at 1583
mem inter-issue at 1584
mem inter-issue at 1585
mem inter-issue at 1586
mem inter-issue at 1587
mem inter-issue at 1589
mem inter-issue at 1590
mem inter-issue at 1592
mem inter-issue at 1857
mem inter-issue at 1858
mem inter-issue at 1858
mem inter-issue at 1859
mem inter-issue at 1859
mem inter-issue at 1860
mem inter-issue at 1861
mem inter-issue at 1861
mem inter-issue at 1862
mem inter-issue at 1863
mem inter-issue at 1863
mem inter-issue at 1863
mem inter-issue at 1864
mem inter-issue at 1864
mem inter-issue at 1864
mem inter-issue at 1865
mem inter-issue at 1865
mem inter-issue at 1865
mem inter-issue at 1866
mem inter-issue at 1866
mem inter-issue at 1866
mem inter-issue at 1867
mem inter-issue at 1867
mem inter-issue at 1867
mem inter-issue at 1868
mem inter-issue at 1868
mem inter-issue at 1869
mem inter-issue at 1869
mem inter-issue at 1870
mem inter-issue at 1870
mem inter-issue at 1870
mem inter-issue at 1871
mem inter-issue at 1871
mem inter-issue at 1871
mem inter-issue at 1871
mem inter-issue at 1872
mem inter-issue at 1872
mem inter-issue at 1873
mem inter-issue at 1873
mem inter-issue at 1874
mem inter-issue at 1875
mem inter-issue at 1875
mem inter-issue at 1876
mem inter-issue at 1876
mem inter-issue at 1876
mem inter-issue at 1877
mem inter-issue at 1879
mem inter-issue at 1879
mem inter-issue at 1880
mem inter-issue at 1882
mem inter-issue at 1882
mem inter-issue at 1883
mem inter-issue at 1884
mem inter-issue at 1885
mem inter-issue at 1887
mem inter-issue at 1888
mem inter-issue at 1889
mem inter-issue at 1889
mem inter-issue at 1890
mem inter-issue at 1891
mem inter-issue at 1891
mem inter-issue at 1892
mem inter-issue at 1892
mem inter-issue at 1893
mem inter-issue at 1893
mem inter-issue at 1893
mem inter-issue at 1894
mem inter-issue at 1894
mem inter-issue at 1895
mem inter-issue at 1895
mem inter-issue at 1896
mem inter-issue at 1896
mem inter-issue at 1896
mem inter-issue at 1897
mem inter-issue at 1898
mem inter-issue at 1899
mem inter-issue at 1899
mem inter-issue at 1900
mem inter-issue at 1900
mem inter-issue at 1901
mem inter-issue at 1901
mem inter-issue at 1902
mem inter-issue at 1903
mem inter-issue at 1903
mem inter-issue at 1903
mem inter-issue at 1904
mem inter-issue at 1904
mem inter-issue at 1904
mem inter-issue at 1905
mem inter-issue at 1905
mem inter-issue at 1906
mem inter-issue at 1906
mem inter-issue at 1906
mem inter-issue at 1907
mem inter-issue at 1907
mem inter-issue at 1908
mem inter-issue at 1908
mem inter-issue at 1909
mem inter-issue at 1910
mem inter-issue at 1910
mem inter-issue at 1911
mem inter-issue at 1912
mem inter-issue at 1913
mem inter-issue at 1913
mem inter-issue at 1914
mem inter-issue at 1914
mem inter-issue at 1915
mem inter-issue at 1915
mem inter-issue at 1916
mem inter-issue at 1918
mem inter-issue at 1919
mem inter-issue at 1922
mem inter-issue at 1923
mem inter-issue at 1924
mem inter-issue at 1925
mem inter-issue at 1926
mem inter-issue at 1927
mem inter-issue at 1930
mem inter-issue at 1931
mem inter-issue at 1931
mem inter-issue at 1933
mem inter-issue at 1934
mem inter-issue at 1934
mem inter-issue at 1935
mem inter-issue at 1936
mem inter-issue at 1939
mem inter-issue at 1940
mem inter-issue at 1943
mem inter-issue at 2206
mem inter-issue at 2208
mem inter-issue at 2209
mem inter-issue at 2211
mem inter-issue at 2212
mem inter-issue at 2212
mem inter-issue at 2214
mem inter-issue at 2214
mem inter-issue at 2215
mem inter-issue at 2215
mem inter-issue at 2217
mem inter-issue at 2217
mem inter-issue at 2218
mem inter-issue at 2218
mem inter-issue at 2220
mem inter-issue at 2220
mem inter-issue at 2220
mem inter-issue at 2221
mem inter-issue at 2222
mem inter-issue at 2222
mem inter-issue at 2223
mem inter-issue at 2223
mem inter-issue at 2224
mem inter-issue at 2225
mem inter-issue at 2225
mem inter-issue at 2226
mem inter-issue at 2227
mem inter-issue at 2228
mem inter-issue at 2228
mem inter-issue at 2228
mem inter-issue at 2230
mem inter-issue at 2230
mem inter-issue at 2231
mem inter-issue at 2231
mem inter-issue at 2233
mem inter-issue at 2233
mem inter-issue at 2234
mem inter-issue at 2234
mem inter-issue at 2236
mem inter-issue at 2236
mem inter-issue at 2236
mem inter-issue at 2237
mem inter-issue at 2238
mem inter-issue at 2239
mem inter-issue at 2239
mem inter-issue at 2240
mem inter-issue at 2240
mem inter-issue at 2241
mem inter-issue at 2241
mem inter-issue at 2241
mem inter-issue at 2242
mem inter-issue at 2244
mem inter-issue at 2245
mem inter-issue at 2245
mem inter-issue at 2246
mem inter-issue at 2246
mem inter-issue at 2250
mem inter-issue at 2250
mem inter-issue at 2251
mem inter-issue at 2251
mem inter-issue at 2255
mem inter-issue at 2255
mem inter-issue at 2256
mem inter-issue at 2256
mem inter-issue at 2258
mem inter-issue at 2258
mem inter-issue at 2259
mem inter-issue at 2259
mem inter-issue at 2260
mem inter-issue at 2261
mem inter-issue at 2262
mem inter-issue at 2263
mem inter-issue at 2263
mem inter-issue at 2263
mem inter-issue at 2264
mem inter-issue at 2264
mem inter-issue at 2265
mem inter-issue at 2266
mem inter-issue at 2266
mem inter-issue at 2267
mem inter-issue at 2267
mem inter-issue at 2268
mem inter-issue at 2269
mem inter-issue at 2269
mem inter-issue at 2271
mem inter-issue at 2272
mem inter-issue at 2273
mem inter-issue at 2274
mem inter-issue at 2274
mem inter-issue at 2274
mem inter-issue at 2274
mem inter-issue at 2275
mem inter-issue at 2276
mem inter-issue at 2276
mem inter-issue at 2277
mem inter-issue at 2277
mem inter-issue at 2278
mem inter-issue at 2278
mem inter-issue at 2278
mem inter-issue at 2279
mem inter-issue at 2279
mem inter-issue at 2279
mem inter-issue at 2280
mem inter-issue at 2280
mem inter-issue at 2281
mem inter-issue at 2281
mem inter-issue at 2282
mem inter-issue at 2282
mem inter-issue at 2282
mem inter-issue at 2283
mem inter-issue at 2283
mem inter-issue at 2284
mem inter-issue at 2284
mem inter-issue at 2285
mem inter-issue at 2285
mem inter-issue at 2286
mem inter-issue at 2287
mem inter-issue at 2289
mem inter-issue at 2290
mem inter-issue at 2291
mem inter-issue at 2561
mem inter-issue at 2562
mem inter-issue at 2562
mem inter-issue at 2563
mem inter-issue at 2564
mem inter-issue at 2564
mem inter-issue at 2565
mem inter-issue at 2566
mem inter-issue at 2566
mem inter-issue at 2567
mem inter-issue at 2567
mem inter-issue at 2567
mem inter-issue at 2568
mem inter-issue at 2568
mem inter-issue at 2569
mem inter-issue at 2569
mem inter-issue at 2570
mem inter-issue at 2570
mem inter-issue at 2571
mem inter-issue at 2571
mem inter-issue at 2572
mem inter-issue at 2572
mem inter-issue at 2573
mem inter-issue at 2573
mem inter-issue at 2573
mem inter-issue at 2573
mem inter-issue at 2574
mem inter-issue at 2574
mem inter-issue at 2575
mem inter-issue at 2575
mem inter-issue at 2576
mem inter-issue at 2576
mem inter-issue at 2577
mem inter-issue at 2577
mem inter-issue at 2578
mem inter-issue at 2579
mem inter-issue at 2579
mem inter-issue at 2579
mem inter-issue at 2580
mem inter-issue at 2580
mem inter-issue at 2580
mem inter-issue at 2581
mem inter-issue at 2581
mem inter-issue at 2582
mem inter-issue at 2582
mem inter-issue at 2582
mem inter-issue at 2583
mem inter-issue at 2584
mem inter-issue at 2585
mem inter-issue at 2585
mem inter-issue at 2586
mem inter-issue at 2586
mem inter-issue at 2587
mem inter-issue at 2588
mem inter-issue at 2591
mem inter-issue at 2592
mem inter-issue at 2859
mem inter-issue at 2861
mem inter-issue at 2865
mem inter-issue at 2866
mem inter-issue at 2867
mem inter-issue at 2868
mem inter-issue at 2869
mem inter-issue at 2872
mem inter-issue at 2872
mem inter-issue at 2873
mem inter-issue at 2874
mem inter-issue at 2875
mem inter-issue at 2875
mem inter-issue at 2878
mem inter-issue at 2878
mem inter-issue at 2879
mem inter-issue at 2879
mem inter-issue at 2881
mem inter-issue at 2881
mem inter-issue at 2883
mem inter-issue at 2883
mem inter-issue at 2885
mem inter-issue at 2885
mem inter-issue at 2885
mem inter-issue at 2888
mem inter-issue at 2889
mem inter-issue at 2891
mem inter-issue at 2892
mem inter-issue at 2892
mem inter-issue at 2892
mem inter-issue at 2894
mem inter-issue at 2895
mem inter-issue at 2898
mem inter-issue at 2898
mem inter-issue at 2900
mem inter-issue at 2900
mem inter-issue at 2902
mem inter-issue at 2902
mem inter-issue at 2905
mem inter-issue at 2906
mem inter-issue at 2908
mem inter-issue at 2908
mem inter-issue at 2910
mem inter-issue at 2910
mem inter-issue at 2912
mem inter-issue at 2915
mem inter-issue at 2916
mem inter-issue at 2916
mem inter-issue at 2917
mem inter-issue at 2918
mem inter-issue at 2918
mem inter-issue at 2920
mem inter-issue at 2921
mem inter-issue at 2923
mem inter-issue at 2923
mem inter-issue at 2925
mem inter-issue at 2925
mem inter-issue at 2927
mem inter-issue at 2928
mem inter-issue at 2930
mem inter-issue at 2931
mem inter-issue at 2931
mem inter-issue at 2932
mem inter-issue at 2934
mem inter-issue at 2935
mem inter-issue at 2938
mem inter-issue at 2939
mem inter-issue at 2939
mem inter-issue at 2940
mem inter-issue at 2940
mem inter-issue at 2941
mem inter-issue at 2942
mem inter-issue at 2946
mem inter-issue at 2947
mem inter-issue at 2948
mem inter-issue at 2948
mem inter-issue at 2948
mem inter-issue at 2949
mem inter-issue at 2950
mem inter-issue at 2950
mem inter-issue at 2951
mem inter-issue at 2953
mem inter-issue at 2954
mem inter-issue at 2956
mem inter-issue at 2956
mem inter-issue at 2956
mem inter-issue at 2957
mem inter-issue at 2957
mem inter-issue at 2958
mem inter-issue at 2959
mem inter-issue at 2963
mem inter-issue at 2964
mem inter-issue at 2965
mem inter-issue at 2965
mem inter-issue at 2966
mem inter-issue at 2966
mem inter-issue at 2967
mem inter-issue at 2970
mem inter-issue at 2971
mem inter-issue at 2972
mem inter-issue at 2973
mem inter-issue at 2973
mem inter-issue at 2980
mem inter-issue at 2981
mem inter-issue at 3230
mem inter-issue at 3231
mem inter-issue at 3232
mem inter-issue at 3233
mem inter-issue at 3236
mem inter-issue at 3237
mem inter-issue at 3238
mem inter-issue at 3239
mem inter-issue at 3241
mem inter-issue at 3242
mem inter-issue at 3243
mem inter-issue at 3244
mem inter-issue at 3247
mem inter-issue at 3248
mem inter-issue at 3249
mem inter-issue at 3250
mem inter-issue at 3252
mem inter-issue at 3253
mem inter-issue at 3254
mem inter-issue at 3254
mem inter-issue at 3255
mem inter-issue at 3255
mem inter-issue at 3256
mem inter-issue at 3257
mem inter-issue at 3258
mem inter-issue at 3259
mem inter-issue at 3260
mem inter-issue at 3260
mem inter-issue at 3261
mem inter-issue at 3261
mem inter-issue at 3262
mem inter-issue at 3263
mem inter-issue at 3264
mem inter-issue at 3267
mem inter-issue at 3267
mem inter-issue at 3268
mem inter-issue at 3270
mem inter-issue at 3273
mem inter-issue at 3273
mem inter-issue at 3273
mem inter-issue at 3274
mem inter-issue at 3276
mem inter-issue at 3277
mem inter-issue at 3278
mem inter-issue at 3279
mem inter-issue at 3282
mem inter-issue at 3282
mem inter-issue at 3283
mem inter-issue at 3326
mem inter-issue at 3330
mem inter-issue at 3332
mem inter-issue at 3333
mem inter-issue at 3334
mem inter-issue at 3334
mem inter-issue at 3336
mem inter-issue at 3337
mem inter-issue at 3338
mem inter-issue at 3338
mem inter-issue at 3339
mem inter-issue at 3340
mem inter-issue at 3340
mem inter-issue at 3341
mem inter-issue at 3342
mem inter-issue at 3343
mem inter-issue at 3344
mem inter-issue at 3344
mem inter-issue at 3345
mem inter-issue at 3346
mem inter-issue at 3347
mem inter-issue at 3348
mem inter-issue at 3351
mem inter-issue at 3352
mem inter-issue at 3616
mem inter-issue at 3617
mem inter-issue at 3618
mem inter-issue at 3618
mem inter-issue at 3619
mem inter-issue at 3619
mem inter-issue at 3620
mem inter-issue at 3621
mem inter-issue at 3622
mem inter-issue at 3623
mem inter-issue at 3624
mem inter-issue at 3624
mem inter-issue at 3624
mem inter-issue at 3625
mem inter-issue at 3625
mem inter-issue at 3626
mem inter-issue at 3626
mem inter-issue at 3626
mem inter-issue at 3627
mem inter-issue at 3628
mem inter-issue at 3630
mem inter-issue at 3632
mem inter-issue at 3632
mem inter-issue at 3632
GPGPU-Sim PTX: WARNING (_1.ptx:936) ** reading undefined register '%r129' (cuid:0). Setting to 0X00000000. This is okay if you are simulating the native ISA
mem inter-issue at 3634
mem inter-issue at 3634
mem inter-issue at 3634
mem inter-issue at 3636
mem inter-issue at 3636
mem inter-issue at 3638
mem inter-issue at 3638
mem inter-issue at 3638
mem inter-issue at 3640
mem inter-issue at 3640
mem inter-issue at 3640
mem inter-issue at 3640
mem inter-issue at 3641
mem inter-issue at 3642
mem inter-issue at 3642
mem inter-issue at 3642
mem inter-issue at 3642
mem inter-issue at 3643
mem inter-issue at 3643
mem inter-issue at 3644
mem inter-issue at 3644
mem inter-issue at 3644
mem inter-issue at 3645
mem inter-issue at 3646
mem inter-issue at 3646
mem inter-issue at 3647
mem inter-issue at 3648
mem inter-issue at 3648
mem inter-issue at 3649
mem inter-issue at 3649
mem inter-issue at 3649
mem inter-issue at 3650
mem inter-issue at 3650
mem inter-issue at 3651
mem inter-issue at 3651
mem inter-issue at 3652
mem inter-issue at 3655
mem inter-issue at 3656
mem inter-issue at 3657
mem inter-issue at 3658
mem inter-issue at 3920
mem inter-issue at 3921
mem inter-issue at 3921
mem inter-issue at 3922
mem inter-issue at 3922
mem inter-issue at 3923
mem inter-issue at 3924
mem inter-issue at 3925
mem inter-issue at 3926
mem inter-issue at 3927
mem inter-issue at 3927
mem inter-issue at 3928
mem inter-issue at 3928
mem inter-issue at 3929
mem inter-issue at 3930
mem inter-issue at 3931
mem inter-issue at 3932
mem inter-issue at 3933
mem inter-issue at 3934
mem inter-issue at 3936
mem inter-issue at 3938
mem inter-issue at 3939
mem inter-issue at 3940
mem inter-issue at 3942
mem inter-issue at 3943
mem inter-issue at 3944
mem inter-issue at 3945
mem inter-issue at 3946
mem inter-issue at 3946
mem inter-issue at 3947
mem inter-issue at 3948
mem inter-issue at 3949
mem inter-issue at 3950
mem inter-issue at 3950
mem inter-issue at 3951
mem inter-issue at 3952
mem inter-issue at 3953
mem inter-issue at 3953
mem inter-issue at 3954
mem inter-issue at 3955
mem inter-issue at 3956
mem inter-issue at 3958
mem inter-issue at 3958
mem inter-issue at 3960
mem inter-issue at 3960
mem inter-issue at 3961
mem inter-issue at 3962
mem inter-issue at 3963
mem inter-issue at 3964
mem inter-issue at 3964
mem inter-issue at 3965
mem inter-issue at 3966
mem inter-issue at 3967
mem inter-issue at 3967
mem inter-issue at 3968
mem inter-issue at 3969
mem inter-issue at 3969
mem inter-issue at 3971
mem inter-issue at 3973
mem inter-issue at 3974
mem inter-issue at 3977
mem inter-issue at 3978
mem inter-issue at 3978
mem inter-issue at 3979
mem inter-issue at 3979
mem inter-issue at 3980
mem inter-issue at 3980
mem inter-issue at 3981
mem inter-issue at 3981
mem inter-issue at 3982
mem inter-issue at 3983
mem inter-issue at 3983
mem inter-issue at 3984
mem inter-issue at 3985
mem inter-issue at 3985
mem inter-issue at 3986
mem inter-issue at 3987
mem inter-issue at 3987
mem inter-issue at 3987
mem inter-issue at 3988
mem inter-issue at 3989
mem inter-issue at 3989
mem inter-issue at 3990
mem inter-issue at 3990
mem inter-issue at 3991
mem inter-issue at 3991
mem inter-issue at 3992
mem inter-issue at 3992
mem inter-issue at 3993
mem inter-issue at 3996
mem inter-issue at 3998
mem inter-issue at 3999
mem inter-issue at 4000
mem inter-issue at 4002
mem inter-issue at 4003
mem inter-issue at 4003
mem inter-issue at 4004
mem inter-issue at 4004
mem inter-issue at 4006
mem inter-issue at 4007
mem inter-issue at 4008
mem inter-issue at 4010
mem inter-issue at 4010
mem inter-issue at 4011
mem inter-issue at 4012
mem inter-issue at 4012
mem inter-issue at 4013
mem inter-issue at 4014
mem inter-issue at 4014
mem inter-issue at 4015
mem inter-issue at 4016
mem inter-issue at 4017
mem inter-issue at 4017
mem inter-issue at 4018
mem inter-issue at 4019
mem inter-issue at 4020
mem inter-issue at 4020
mem inter-issue at 4021
mem inter-issue at 4021
mem inter-issue at 4021
mem inter-issue at 4022
mem inter-issue at 4023
mem inter-issue at 4023
mem inter-issue at 4025
mem inter-issue at 4027
mem inter-issue at 4028
mem inter-issue at 4029
mem inter-issue at 4030
mem inter-issue at 4278
mem inter-issue at 4279
mem inter-issue at 4280
mem inter-issue at 4281
mem inter-issue at 4284
mem inter-issue at 4285
mem inter-issue at 4286
mem inter-issue at 4286
mem inter-issue at 4287
mem inter-issue at 4287
mem inter-issue at 4288
mem inter-issue at 4289
mem inter-issue at 4290
mem inter-issue at 4292
mem inter-issue at 4293
mem inter-issue at 4293
mem inter-issue at 4294
mem inter-issue at 4294
mem inter-issue at 4295
mem inter-issue at 4295
mem inter-issue at 4296
mem inter-issue at 4296
mem inter-issue at 4296
mem inter-issue at 4298
mem inter-issue at 4298
mem inter-issue at 4300
mem inter-issue at 4300
mem inter-issue at 4301
mem inter-issue at 4301
mem inter-issue at 4302
mem inter-issue at 4302
mem inter-issue at 4302
mem inter-issue at 4303
mem inter-issue at 4304
mem inter-issue at 4305
mem inter-issue at 4305
mem inter-issue at 4306
mem inter-issue at 4308
mem inter-issue at 4309
mem inter-issue at 4310
mem inter-issue at 4311
mem inter-issue at 4313
mem inter-issue at 4314
mem inter-issue at 4315
mem inter-issue at 4317
mem inter-issue at 4318
mem inter-issue at 4319
mem inter-issue at 4319
mem inter-issue at 4320
mem inter-issue at 4320
mem inter-issue at 4321
mem inter-issue at 4321
mem inter-issue at 4323
mem inter-issue at 4323
mem inter-issue at 4324
mem inter-issue at 4325
mem inter-issue at 4326
mem inter-issue at 4326
mem inter-issue at 4329
mem inter-issue at 4329
mem inter-issue at 4334
mem inter-issue at 4334
mem inter-issue at 4338
mem inter-issue at 4339
mem inter-issue at 4342
mem inter-issue at 4343
mem inter-issue at 4344
mem inter-issue at 4349
mem inter-issue at 4350
mem inter-issue at 4351
mem inter-issue at 4352
mem inter-issue at 4354
mem inter-issue at 4355
mem inter-issue at 4357
mem inter-issue at 4362
mem inter-issue at 4363
mem inter-issue at 4363
mem inter-issue at 4365
mem inter-issue at 4367
mem inter-issue at 4370
mem inter-issue at 4371
mem inter-issue at 4373
mem inter-issue at 4378
mem inter-issue at 4380
mem inter-issue at 4589
mem inter-issue at 4590
mem inter-issue at 4591
mem inter-issue at 4592
mem inter-issue at 4593
mem inter-issue at 4595
mem inter-issue at 4596
mem inter-issue at 4596
mem inter-issue at 4597
mem inter-issue at 4597
mem inter-issue at 4598
mem inter-issue at 4598
mem inter-issue at 4598
mem inter-issue at 4599
mem inter-issue at 4600
mem inter-issue at 4602
mem inter-issue at 4603
mem inter-issue at 4605
mem inter-issue at 4606
mem inter-issue at 4860
mem inter-issue at 4861
mem inter-issue at 4861
mem inter-issue at 4862
mem inter-issue at 4862
mem inter-issue at 4863
mem inter-issue at 4863
mem inter-issue at 4864
mem inter-issue at 4866
mem inter-issue at 4867
mem inter-issue at 4867
mem inter-issue at 4868
mem inter-issue at 4868
mem inter-issue at 4869
mem inter-issue at 4869
mem inter-issue at 4870
mem inter-issue at 4872
mem inter-issue at 4874
mem inter-issue at 4874
mem inter-issue at 4875
mem inter-issue at 4878
mem inter-issue at 4879
mem inter-issue at 4880
mem inter-issue at 4881
mem inter-issue at 4883
mem inter-issue at 4885
mem inter-issue at 4885
mem inter-issue at 4886
mem inter-issue at 4886
mem inter-issue at 4887
mem inter-issue at 4888
mem inter-issue at 4889
mem inter-issue at 4889
mem inter-issue at 4890
mem inter-issue at 4891
mem inter-issue at 4892
mem inter-issue at 4892
mem inter-issue at 4893
mem inter-issue at 4894
mem inter-issue at 4895
mem inter-issue at 4896
mem inter-issue at 4898
mem inter-issue at 4899
mem inter-issue at 4900
mem inter-issue at 4900
mem inter-issue at 4901
mem inter-issue at 4902
mem inter-issue at 4902
mem inter-issue at 4903
mem inter-issue at 4904
mem inter-issue at 4905
mem inter-issue at 4906
mem inter-issue at 4907
mem inter-issue at 4908
mem inter-issue at 4908
mem inter-issue at 4909
mem inter-issue at 4910
mem inter-issue at 4913
mem inter-issue at 4914
mem inter-issue at 4915
mem inter-issue at 4915
mem inter-issue at 4918
mem inter-issue at 4919
mem inter-issue at 4919
mem inter-issue at 4919
mem inter-issue at 4921
mem inter-issue at 4922
mem inter-issue at 4923
mem inter-issue at 4923
mem inter-issue at 4924
mem inter-issue at 4924
mem inter-issue at 4925
mem inter-issue at 4925
mem inter-issue at 4926
mem inter-issue at 4928
mem inter-issue at 4928
mem inter-issue at 4929
mem inter-issue at 4929
mem inter-issue at 4930
mem inter-issue at 4931
mem inter-issue at 5189
mem inter-issue at 5190
mem inter-issue at 5191
mem inter-issue at 5192
mem inter-issue at 5195
mem inter-issue at 5196
mem inter-issue at 5197
mem inter-issue at 5198
mem inter-issue at 5200
mem inter-issue at 5201
mem inter-issue at 5202
mem inter-issue at 5203
mem inter-issue at 5206
mem inter-issue at 5207
mem inter-issue at 5208
mem inter-issue at 5208
mem inter-issue at 5209
mem inter-issue at 5209
mem inter-issue at 5210
mem inter-issue at 5211
mem inter-issue at 5215
mem inter-issue at 5215
mem inter-issue at 5216
mem inter-issue at 5216
mem inter-issue at 5217
mem inter-issue at 5217
mem inter-issue at 5218
mem inter-issue at 5218
mem inter-issue at 5219
mem inter-issue at 5219
mem inter-issue at 5220
mem inter-issue at 5221
mem inter-issue at 5223
mem inter-issue at 5223
mem inter-issue at 5224
mem inter-issue at 5225
mem inter-issue at 5225
mem inter-issue at 5225
mem inter-issue at 5226
mem inter-issue at 5226
mem inter-issue at 5227
mem inter-issue at 5227
mem inter-issue at 5228
mem inter-issue at 5228
mem inter-issue at 5232
mem inter-issue at 5233
mem inter-issue at 5234
mem inter-issue at 5234
mem inter-issue at 5235
mem inter-issue at 5235
mem inter-issue at 5236
mem inter-issue at 5237
mem inter-issue at 5241
mem inter-issue at 5242
mem inter-issue at 5242
mem inter-issue at 5243
mem inter-issue at 5243
mem inter-issue at 5244
mem inter-issue at 5244
mem inter-issue at 5245
mem inter-issue at 5247
mem inter-issue at 5249
mem inter-issue at 5250
mem inter-issue at 5250
mem inter-issue at 5250
mem inter-issue at 5251
mem inter-issue at 5251
mem inter-issue at 5252
mem inter-issue at 5253
mem inter-issue at 5253
mem inter-issue at 5255
mem inter-issue at 5256
mem inter-issue at 5257
mem inter-issue at 5257
mem inter-issue at 5258
mem inter-issue at 5259
mem inter-issue at 5261
mem inter-issue at 5262
mem inter-issue at 5262
mem inter-issue at 5263
mem inter-issue at 5278
mem inter-issue at 5285
mem inter-issue at 5286
mem inter-issue at 5293
mem inter-issue at 5294
mem inter-issue at 5294
mem inter-issue at 5295
mem inter-issue at 5301
mem inter-issue at 5302
mem inter-issue at 5303
mem inter-issue at 5310
mem inter-issue at 5311
mem inter-issue at 5514
mem inter-issue at 5515
mem inter-issue at 5516
mem inter-issue at 5517
mem inter-issue at 5518
mem inter-issue at 5520
mem inter-issue at 5521
mem inter-issue at 5521
mem inter-issue at 5522
mem inter-issue at 5522
mem inter-issue at 5523
mem inter-issue at 5523
mem inter-issue at 5523
mem inter-issue at 5524
mem inter-issue at 5525
mem inter-issue at 5527
mem inter-issue at 5528
mem inter-issue at 5529
mem inter-issue at 5530
mem inter-issue at 5530
mem inter-issue at 5531
mem inter-issue at 5531
[...]
gpgpu_stall_shd_mem[s_mem][bk_conf] = 0
gpgpu_stall_shd_mem[gl_mem][bk_conf] = 0
gpgpu_stall_shd_mem[gl_mem][coal_stall] = 39
gpgpu_stall_shd_mem[gl_mem][data_port_stall] = 0
gpgpu_stall_shd_mem[g_mem_ld][mshr_rc] = 0
gpgpu_stall_shd_mem[g_mem_ld][icnt_rc] = 0
gpgpu_stall_shd_mem[g_mem_ld][wb_icnt_rc] = 0
gpgpu_stall_shd_mem[g_mem_ld][wb_rsrv_fail] = 0
gpgpu_stall_shd_mem[g_mem_st][mshr_rc] = 0
gpgpu_stall_shd_mem[g_mem_st][icnt_rc] = 0
gpgpu_stall_shd_mem[g_mem_st][wb_icnt_rc] = 0
gpgpu_stall_shd_mem[g_mem_st][wb_rsrv_fail] = 0
gpgpu_stall_shd_mem[l_mem_ld][mshr_rc] = 0
gpgpu_stall_shd_mem[l_mem_ld][icnt_rc] = 0
gpgpu_stall_shd_mem[l_mem_ld][wb_icnt_rc] = 0
gpgpu_stall_shd_mem[l_mem_ld][wb_rsrv_fail] = 0
gpgpu_stall_shd_mem[l_mem_st][mshr_rc] = 0
gpgpu_stall_shd_mem[l_mem_st][icnt_rc] = 0
gpgpu_stall_shd_mem[l_mem_ld][wb_icnt_rc] = 0
gpgpu_stall_shd_mem[l_mem_ld][wb_rsrv_fail] = 0
gpu_reg_bank_conflict_stalls = 0
Warp Occupancy Distribution:
Stall:1300	W0_Idle:131064	W0_Scoreboard:45529	W1:314	W2:1659	W3:56	W4:268	W5:503	W6:1155	W7:233	W8:53	W9:214	W10:2	W11:11	W12:237	W13:6	W14:11	W15:332	W16:212	W17:1	W18:1	W19:188	W20:20	W21:2	W22:4	W23:39	W24:21	W25:0	W26:52	W27:220	W28:7	W29:118	W30:310	W31:40	W32:4348
traffic_breakdown_coretomem[CONST_ACC_R] = 80 {8:10,}
traffic_breakdown_coretomem[GLOBAL_ACC_R] = 64 {8:8,}
traffic_breakdown_coretomem[GLOBAL_ACC_W] = 2176 {136:16,}
traffic_breakdown_coretomem[INST_ACC_R] = 3184 {8:398,}
traffic_breakdown_coretomem[LOCAL_ACC_R] = 472 {8:59,}
traffic_breakdown_coretomem[LOCAL_ACC_W] = 7288 {72:3,136:52,}
traffic_breakdown_memtocore[CONST_ACC_R] = 720 {72:10,}
traffic_breakdown_memtocore[GLOBAL_ACC_R] = 1088 {136:8,}
traffic_breakdown_memtocore[GLOBAL_ACC_W] = 128 {8:16,}
traffic_breakdown_memtocore[INST_ACC_R] = 54128 {136:398,}
traffic_breakdown_memtocore[LOCAL_ACC_R] = 8024 {136:59,}
traffic_breakdown_memtocore[LOCAL_ACC_W] = 440 {8:55,}
maxmrqlatency = 85 
maxdqlatency = 0 
maxmflatency = 378 
averagemflatency = 239 
max_icnt2mem_latency = 70 
max_icnt2sh_latency = 55506 
mrq_lat_table:112 	6 	3 	28 	21 	14 	5 	0 	0 	0 	0 	0 	0 	0 	0 	0 	0 	0 	0 	0 	0 	0 	0 	0 	0 	0 	0 	0 	0 	0 	0 	0 	
dq_lat_table:0 	0 	0 	0 	0 	0 	0 	0 	0 	0 	0 	0 	0 	0 	0 	0 	0 	0 	0 	0 	0 	0 	0 	0 	0 	0 	0 	0 	0 	0 	0 	0 	
mf_lat_table:0 	0 	0 	0 	0 	0 	0 	48 	100 	0 	0 	0 	0 	0 	0 	0 	0 	0 	0 	0 	0 	0 	0 	0 	0 	0 	0 	0 	0 	0 	0 	0 	
icnt2mem_lat_table:0 	0 	0 	494 	23 	19 	10 	0 	0 	0 	0 	0 	0 	0 	0 	0 	0 	0 	0 	0 	0 	0 	0 	0 	
icnt2sh_lat_table:0 	0 	0 	65 	12 	0 	0 	0 	0 	0 	48 	0 	0 	8 	10 	5 	0 	0 	0 	0 	0 	0 	0 	0 	
mf_lat_pw_table:0 	0 	0 	0 	0 	0 	0 	22 	17 	0 	0 	0 	0 	0 	0 	0 	0 	0 	0 	0 	0 	0 	0 	0 	0 	0 	0 	0 	0 	0 	0 	0 	
maximum concurrent accesses to same row:
dram[0]:         1         0         0         0         0         0         0         0         0         0         0         0         0         0         0         0 
dram[1]:         2         0         0         0         0         0         0         0         0         0         0         0         0         0         0         0 
dram[2]:         8         4         0         0         0         4         0         0         0         0         0         0         0         0         0         0 
dram[3]:         8         4         0         0         0         0         0         0         0         0         0         0         0         0         0         0 
dram[4]:         8         4         0         0         0         0         0         0         0         0         0         0         0         0         0         0 
dram[5]:         8         0         0         0         0         0         0         0         0         0         0         0         0         0         0         0 
maximum service time to same row:
dram[0]:       287      3882         0         0         0         0         0         0         0         0         0         0         0         0         0         0 
dram[1]:      6838      4550         0         0         0         0         0         0         0         0         0         0         0         0         0         0 
dram[2]:      5974      7465      1182     23007      1194     39928         0         0         0         0         0         0         0         0         0         0 
dram[3]:      9241      6714      1151     23006      1163      1463         0         0         0         0         0         0         0         0         0         0 
dram[4]:     10637      6500      1194     23109      1207      1476         0         0         0         0         0         0         0         0         0         0 
dram[5]:      2431      7029      1165         0      1176      1471         0         0         0         0         0         0         0         0         0         0 
average row accesses per activate:
dram[0]:  2.333333  4.000000      -nan      -nan      -nan      -nan      -nan      -nan      -nan      -nan      -nan      -nan      -nan      -nan      -nan      -nan 
dram[1]:  2.000000  4.000000      -nan      -nan      -nan      -nan      -nan      -nan      -nan      -nan      -nan      -nan      -nan      -nan      -nan      -nan 
dram[2]:  3.200000  2.250000 10.000000  5.000000  6.000000  4.000000      -nan      -nan      -nan      -nan      -nan      -nan      -nan      -nan      -nan      -nan 
dram[3]:  5.000000  2.000000  8.000000  1.000000  4.000000  4.000000      -nan      -nan      -nan      -nan      -nan      -nan      -nan      -nan      -nan      -nan 
dram[4]:  2.800000  2.250000  9.000000  3.000000  4.000000  4.000000      -nan      -nan      -nan      -nan      -nan      -nan      -nan      -nan      -nan      -nan 
dram[5]:  5.500000  4.000000  8.000000      -nan  4.000000  4.000000      -nan      -nan      -nan      -nan      -nan      -nan      -nan      -nan      -nan      -nan 
average row locality = 189/52 = 3.634615
number of total memory accesses made:
dram[0]:         0         0         0         0         0         0         0         0         0         0         0         0         0         0         0         0 
dram[1]:         0         0         0         0         0         0         0         0         0         0         0         0         0         0         0         0 
dram[2]:         0         0         0         0         0         0         0         0         0         0         0         0         0         0         0         0 
dram[3]:         0         0         0         0         0         0         0         0         0         0         0         0         0         0         0         0 
dram[4]:         0         0         0         0         0         0         0         0         0         0         0         0         0         0         0         0 
dram[5]:         0         0         0         0         0         0         0         0         0         0         0         0         0         0         0         0 
total accesses: 0
min_bank_accesses = 0!
min_chip_accesses = 0!
number of total read accesses:
dram[0]:         7         4         0         0         0         0         0         0         0         0         0         0         0         0         0         0 
dram[1]:         6         4         0         0         0         0         0         0         0         0         0         0         0         0         0         0 
dram[2]:        12         9         6         5         4         6         0         0         0         0         0         0         0         0         0         0 
dram[3]:        11         8         4         1         2         2         0         0         0         0         0         0         0         0         0         0 
dram[4]:        10         9         5         3         2         2         0         0         0         0         0         0         0         0         0         0 
dram[5]:         7         4         4         0         2         2         0         0         0         0         0         0         0         0         0         0 
total reads: 141
min_bank_accesses = 0!
chip skew: 42/10 = 4.20
number of total write accesses:
dram[0]:         0         0         0         0         0         0         0         0         0         0         0         0         0         0         0         0 
dram[1]:         0         0         0         0         0         0         0         0         0         0         0         0         0         0         0         0 
dram[2]:         4         0         4         0         2         2         0         0         0         0         0         0         0         0         0         0 
dram[3]:         4         0         4         0         2         2         0         0         0         0         0         0         0         0         0         0 
dram[4]:         4         0         4         0         2         2         0         0         0         0         0         0         0         0         0         0 
dram[5]:         4         0         4         0         2         2         0         0         0         0         0         0         0         0         0         0 
total reads: 48
min_bank_accesses = 0!
min_chip_accesses = 0!
average mf latency per bank:
dram[0]:         78         0    none      none      none      none      none      none      none      none      none      none      none      none      none      none  
dram[1]:        264         0    none      none      none      none      none      none      none      none      none      none      none      none      none      none  
dram[2]:        229       151       273       261       236       270    none      none      none      none      none      none      none      none      none      none  
dram[3]:        190       168       157       268       148       274    none      none      none      none      none      none      none      none      none      none  
dram[4]:        203       150       208       262       166       278    none      none      none      none      none      none      none      none      none      none  
dram[5]:        131         0       155    none         153       276    none      none      none      none      none      none      none      none      none      none  
maximum mf latency per bank:
dram[0]:        275         0         0         0         0         0         0         0         0         0         0         0         0         0         0         0
dram[1]:        276         0         0         0         0         0         0         0         0         0         0         0         0         0         0         0
dram[2]:        322       277       378       273       322       280         0         0         0         0         0         0         0         0         0         0
dram[3]:        322       277       353       268       316       268         0         0         0         0         0         0         0         0         0         0
dram[4]:        318       277       376       268       346       281         0         0         0         0         0         0         0         0         0         0
dram[5]:        323         0       353         0       316       269         0         0         0         0         0         0         0         0         0         0
Memory Partition 0: 
Cache L2_bank_000:
MSHR contents

Cache L2_bank_001:
MSHR contents

In Dram Latency Queue (total = 0): 
DRAM[0]: 16 bks, busW=4 BL=8 CL=12, tRRD=2 tCCD=6, tRCD=12 tRAS=28 tRP=12 tRC=40
n_cmd=73268 n_nop=73240 n_act=4 n_pre=2 n_req=11 n_rd=22 n_write=0 bw_util=0.0006005
n_activity=289 dram_eff=0.1522
bk0: 14a 73180i bk1: 8a 73238i bk2: 0a 73268i bk3: 0a 73268i bk4: 0a 73268i bk5: 0a 73268i bk6: 0a 73268i bk7: 0a 73268i bk8: 0a 73268i bk9: 0a 73268i bk10: 0a 73268i bk11: 0a 73268i bk12: 0a 73268i bk13: 0a 73268i bk14: 0a 73268i bk15: 0a 73268i 
dram_util_bins: 0 0 0 0 0 0 0 0 0 0
dram_eff_bins: 0 0 0 0 0 0 0 0 0 0
mrqq: max=0 avg=0
Memory Partition 1: 
Cache L2_bank_002:
MSHR contents

Cache L2_bank_003:
MSHR contents

In Dram Latency Queue (total = 0): 
DRAM[1]: 16 bks, busW=4 BL=8 CL=12, tRRD=2 tCCD=6, tRCD=12 tRAS=28 tRP=12 tRC=40
n_cmd=73268 n_nop=73242 n_act=4 n_pre=2 n_req=10 n_rd=20 n_write=0 bw_util=0.0005459
n_activity=264 dram_eff=0.1515
bk0: 12a 73183i bk1: 8a 73238i bk2: 0a 73265i bk3: 0a 73267i bk4: 0a 73268i bk5: 0a 73268i bk6: 0a 73268i bk7: 0a 73268i bk8: 0a 73268i bk9: 0a 73268i bk10: 0a 73268i bk11: 0a 73268i bk12: 0a 73268i bk13: 0a 73268i bk14: 0a 73269i bk15: 0a 73270i 
dram_util_bins: 0 0 0 0 0 0 0 0 0 0
dram_eff_bins: 0 0 0 0 0 0 0 0 0 0
mrqq: max=0 avg=0
Memory Partition 2: 
Cache L2_bank_004:
MSHR contents

Cache L2_bank_005:
MSHR contents

In Dram Latency Queue (total = 0): 
DRAM[2]: 16 bks, busW=4 BL=8 CL=12, tRRD=2 tCCD=6, tRCD=12 tRAS=28 tRP=12 tRC=40
n_cmd=73268 n_nop=73138 n_act=14 n_pre=8 n_req=54 n_rd=84 n_write=24 bw_util=0.002948
n_activity=1055 dram_eff=0.2047
bk0: 24a 73003i bk1: 18a 73144i bk2: 12a 73089i bk3: 10a 73232i bk4: 8a 73167i bk5: 12a 73172i bk6: 0a 73265i bk7: 0a 73265i bk8: 0a 73266i bk9: 0a 73266i bk10: 0a 73268i bk11: 0a 73269i bk12: 0a 73269i bk13: 0a 73269i bk14: 0a 73271i bk15: 0a 73273i 
dram_util_bins: 0 0 0 0 0 0 0 0 0 0
dram_eff_bins: 0 0 0 0 0 0 0 0 0 0
mrqq: max=8 avg=0.0101272
Memory Partition 3: 
Cache L2_bank_006:
MSHR contents

Cache L2_bank_007:
MSHR contents

In Dram Latency Queue (total = 0): 
DRAM[3]: 16 bks, busW=4 BL=8 CL=12, tRRD=2 tCCD=6, tRCD=12 tRAS=28 tRP=12 tRC=40
n_cmd=73268 n_nop=73172 n_act=11 n_pre=5 n_req=40 n_rd=56 n_write=24 bw_util=0.002184
n_activity=740 dram_eff=0.2162
bk0: 22a 73053i bk1: 16a 73149i bk2: 8a 73094i bk3: 2a 73247i bk4: 4a 73194i bk5: 4a 73212i bk6: 0a 73266i bk7: 0a 73266i bk8: 0a 73268i bk9: 0a 73268i bk10: 0a 73269i bk11: 0a 73269i bk12: 0a 73269i bk13: 0a 73269i bk14: 0a 73271i bk15: 0a 73272i 
dram_util_bins: 0 0 0 0 0 0 0 0 0 0
dram_eff_bins: 0 0 0 0 0 0 0 0 0 0
mrqq: max=4 avg=0.00495441
Memory Partition 4: 
Cache L2_bank_008:
MSHR contents

Cache L2_bank_009:
MSHR contents

In Dram Latency Queue (total = 0): 
DRAM[4]: 16 bks, busW=4 BL=8 CL=12, tRRD=2 tCCD=6, tRCD=12 tRAS=28 tRP=12 tRC=40
n_cmd=73268 n_nop=73162 n_act=13 n_pre=7 n_req=43 n_rd=62 n_write=24 bw_util=0.002348
n_activity=847 dram_eff=0.2031
bk0: 20a 73010i bk1: 18a 73142i bk2: 10a 73105i bk3: 6a 73240i bk4: 4a 73156i bk5: 4a 73209i bk6: 0a 73266i bk7: 0a 73266i bk8: 0a 73267i bk9: 0a 73267i bk10: 0a 73268i bk11: 0a 73269i bk12: 0a 73269i bk13: 0a 73269i bk14: 0a 73271i bk15: 0a 73273i 
dram_util_bins: 0 0 0 0 0 0 0 0 0 0
dram_eff_bins: 0 0 0 0 0 0 0 0 0 0
mrqq: max=9 avg=0.0109188
Memory Partition 5: 
Cache L2_bank_010:
MSHR contents

Cache L2_bank_011:
MSHR contents

In Dram Latency Queue (total = 0): 
DRAM[5]: 16 bks, busW=4 BL=8 CL=12, tRRD=2 tCCD=6, tRCD=12 tRAS=28 tRP=12 tRC=40
n_cmd=73268 n_nop=73199 n_act=6 n_pre=1 n_req=31 n_rd=38 n_write=24 bw_util=0.001692
n_activity=454 dram_eff=0.2731
bk0: 14a 73115i bk1: 8a 73239i bk2: 8a 73117i bk3: 0a 73267i bk4: 4a 73171i bk5: 4a 73212i bk6: 0a 73266i bk7: 0a 73266i bk8: 0a 73267i bk9: 0a 73268i bk10: 0a 73269i bk11: 0a 73269i bk12: 0a 73269i bk13: 0a 73269i bk14: 0a 73269i bk15: 0a 73269i 
dram_util_bins: 0 0 0 0 0 0 0 0 0 0
dram_eff_bins: 0 0 0 0 0 0 0 0 0 0
mrqq: max=4 avg=0.00444942

========= L2 cache stats =========
L2_cache_bank[0]: Access = 38, Miss = 7, Miss_rate = 0.184, Pending_hits = 5, Reservation_fails = 0
L2_cache_bank[1]: Access = 40, Miss = 4, Miss_rate = 0.100, Pending_hits = 4, Reservation_fails = 0
L2_cache_bank[2]: Access = 28, Miss = 6, Miss_rate = 0.214, Pending_hits = 8, Reservation_fails = 0
L2_cache_bank[3]: Access = 40, Miss = 4, Miss_rate = 0.100, Pending_hits = 4, Reservation_fails = 0
L2_cache_bank[4]: Access = 57, Miss = 22, Miss_rate = 0.386, Pending_hits = 5, Reservation_fails = 0
L2_cache_bank[5]: Access = 60, Miss = 20, Miss_rate = 0.333, Pending_hits = 4, Reservation_fails = 0
L2_cache_bank[6]: Access = 50, Miss = 17, Miss_rate = 0.340, Pending_hits = 4, Reservation_fails = 0
L2_cache_bank[7]: Access = 43, Miss = 11, Miss_rate = 0.256, Pending_hits = 3, Reservation_fails = 0
L2_cache_bank[8]: Access = 51, Miss = 17, Miss_rate = 0.333, Pending_hits = 3, Reservation_fails = 0
L2_cache_bank[9]: Access = 56, Miss = 14, Miss_rate = 0.250, Pending_hits = 3, Reservation_fails = 0
L2_cache_bank[10]: Access = 41, Miss = 13, Miss_rate = 0.317, Pending_hits = 3, Reservation_fails = 0
L2_cache_bank[11]: Access = 42, Miss = 6, Miss_rate = 0.143, Pending_hits = 2, Reservation_fails = 0
L2_total_cache_accesses = 546
L2_total_cache_misses = 141
L2_total_cache_miss_rate = 0.2582
L2_total_cache_pending_hits = 48
L2_total_cache_reservation_fails = 0
L2_total_cache_breakdown:
	L2_cache_stats_breakdown[GLOBAL_ACC_R][HIT] = 8
	L2_cache_stats_breakdown[LOCAL_ACC_R][HIT] = 17
	L2_cache_stats_breakdown[LOCAL_ACC_R][MISS] = 42
	L2_cache_stats_breakdown[CONST_ACC_R][HIT_RESERVED] = 6
	L2_cache_stats_breakdown[CONST_ACC_R][MISS] = 4
	L2_cache_stats_breakdown[GLOBAL_ACC_W][HIT] = 8
	L2_cache_stats_breakdown[GLOBAL_ACC_W][MISS] = 8
	L2_cache_stats_breakdown[LOCAL_ACC_W][HIT] = 15
	L2_cache_stats_breakdown[LOCAL_ACC_W][MISS] = 40
	L2_cache_stats_breakdown[INST_ACC_R][HIT] = 309
	L2_cache_stats_breakdown[INST_ACC_R][HIT_RESERVED] = 42
	L2_cache_stats_breakdown[INST_ACC_R][MISS] = 47
L2_cache_data_port_util = 0.002
L2_cache_fill_port_util = 0.001

icnt_total_pkts_mem_to_simt=2426
icnt_total_pkts_simt_to_mem=824
LD_mem_lat_dist  0 0 0 0 0 0 0 0 0 0 0 0 0 0 0 0 0 0 0 0 0 0 0 0 0 0 0
ST_mem_lat_dist  0 0 0 0 0 0 0 0 0 0 0 0 0 0 0 0 0 0 0 0 0 0 0 0 0 0 0
----------------------------Interconnect-DETAILS--------------------------------
Class 0:
Packet latency average = 8.72253
	minimum = 6
	maximum = 22
Network latency average = 8.31868
	minimum = 6
	maximum = 21
Slowest packet = 323
Flit latency average = 6.50769
	minimum = 6
	maximum = 17
Slowest flit = 943
Fragmentation average = 0
	minimum = 0
	maximum = 0
Injected packet rate average = 0.000728637
	minimum = 0 (at node 0)
	maximum = 0.00623345 (at node 1)
Accepted packet rate average = 0.000728637
	minimum = 0 (at node 0)
	maximum = 0.00623345 (at node 1)
Injected flit rate average = 0.00216856
	minimum = 0 (at node 0)
	maximum = 0.00897184 (at node 1)
Accepted flit rate average= 0.00216856
	minimum = 0 (at node 0)
	maximum = 0.0281766 (at node 1)
Injected packet length average = 2.97619
Accepted packet length average = 2.97619
Total in-flight flits = 0 (0 measured)
====== Overall Traffic Statistics ======
====== Traffic class 0 ======
Packet latency average = 8.72253 (1 samples)
	minimum = 6 (1 samples)
	maximum = 22 (1 samples)
Network latency average = 8.31868 (1 samples)
	minimum = 6 (1 samples)
	maximum = 21 (1 samples)
Flit latency average = 6.50769 (1 samples)
	minimum = 6 (1 samples)
	maximum = 17 (1 samples)
Fragmentation average = 0 (1 samples)
	minimum = 0 (1 samples)
	maximum = 0 (1 samples)
Injected packet rate average = 0.000728637 (1 samples)
	minimum = 0 (1 samples)
	maximum = 0.00623345 (1 samples)
Accepted packet rate average = 0.000728637 (1 samples)
	minimum = 0 (1 samples)
	maximum = 0.00623345 (1 samples)
Injected flit rate average = 0.00216856 (1 samples)
	minimum = 0 (1 samples)
	maximum = 0.00897184 (1 samples)
Accepted flit rate average = 0.00216856 (1 samples)
	minimum = 0 (1 samples)
	maximum = 0.0281766 (1 samples)
Injected packet size average = 2.97619 (1 samples)
Accepted packet size average = 2.97619 (1 samples)
Hops average = 1 (1 samples)
----------------------------END-of-Interconnect-DETAILS-------------------------


gpgpu_simulation_time = 0 days, 0 hrs, 0 min, 4 sec (4 sec)
gpgpu_simulation_rate = 47402 (inst/sec)
gpgpu_simulation_rate = 13876 (cycle/sec)
GPGPU-Sim: synchronize waiting for inactive GPU simulation
GPGPU-Sim API: Stream Manager State
GPGPU-Sim: detected inactive GPU simulation thread

checksum=6d03731c32
Kernel Time: 2988.760010 
